
     RDKit          2D

 13 12  0  0  0  0  0  0  0  0999 V2000
    7.4417   -3.5417    0.0000 S   0  0  0  0  0  0  0  0  0  0  0  0
    6.6917   -3.5292    0.0000 C   0  0  0  0  0  0  0  0  0  0  0  0
    7.8167   -4.1917    0.0000 O   0  0  0  0  0  0  0  0  0  0  0  0
    7.8292   -2.9042    0.0000 O   0  0  0  0  0  0  0  0  0  0  0  0
    8.2667   -3.5542    0.0000 N   0  0  0  0  0  0  0  0  0  0  0  0
    6.3042   -4.1792    0.0000 C   0  0  0  0  0  0  0  0  0  0  0  0
    6.3292   -2.8667    0.0000 C   0  0  0  0  0  0  0  0  0  0  0  0
    5.5542   -4.1667    0.0000 C   0  0  0  0  0  0  0  0  0  0  0  0
    5.5792   -2.8625    0.0000 C   0  0  0  0  0  0  0  0  0  0  0  0
    5.1917   -3.5042    0.0000 C   0  0  0  0  0  0  0  0  0  0  0  0
    3.0792   -4.2792    0.0000 Cl  0  0  0  0  0  0  0  0  0  0  0  0
    4.0792   -2.8417    0.0000 N   0  0  0  0  0  0  0  0  0  0  0  0
    4.4417   -3.5000    0.0000 C   0  0  0  0  0  0  0  0  0  0  0  0
  2  1  1  0
  3  1  2  0
  4  1  2  0
  5  1  1  0
  6  2  2  0
  7  2  1  0
  8  6  1  0
  9  7  2  0
 10  9  1  0
 12 13  1  0
 13 10  1  0
  8 10  2  0
M  END
>  <ID>  (1) 


>  <MOLENAME>  (1) 
MAFENIDE HYDROCHLORIDE

>  <therap>  (1) 
antibacterial

>  <ref>  (1) 
Life Sci 5:2279 (1966); Anal Profiles Drug Subst Excip 24:277 (1996)

>  <cas#>  (1) 
138-39-6

>  <source>  (1) 
synthetic

>  <status>  (1) 
USAN, INN, BAN, JAN 

>  <tradename>  (1) 
SULFAMYLON

>  <SMILES>  (1) 
NCc1ccc(S(N)(=O)=O)cc1

>  <standardized_failed>  (1) 
False

$$$$

     RDKit          2D

 42 48  0  0  0  0  0  0  0  0999 V2000
    9.0417   -2.4917    0.0000 C   0  0  0  0  0  0  0  0  0  0  0  0
    8.3250   -2.0792    0.0000 C   0  0  0  0  0  0  0  0  0  0  0  0
    7.6125   -2.4917    0.0000 C   0  0  0  0  0  0  0  0  0  0  0  0
    7.6125   -3.3167    0.0000 C   0  0  0  0  0  0  0  0  0  0  0  0
    9.0417   -3.3167    0.0000 C   0  0  0  0  0  0  0  0  0  0  0  0
    8.3250   -3.7292    0.0000 C   0  0  0  0  0  0  0  0  0  0  0  0
    7.9000   -0.5375    0.0000 C   0  0  0  0  0  0  0  0  0  0  0  0
    7.0542    0.8833    0.0000 C   0  0  0  0  0  0  0  0  0  0  0  0
    7.0750   -0.5417    0.0000 C   0  0  0  0  0  0  0  0  0  0  0  0
    6.6542    0.1708    0.0000 C   0  0  0  0  0  0  0  0  0  0  0  0
    8.3042    0.1833    0.0000 O   0  0  0  0  0  0  0  0  0  0  0  0
    8.3250   -1.2542    0.0000 O   0  0  0  0  0  0  0  0  0  0  0  0
    8.3250   -4.5625    0.0000 C   0  0  0  0  0  0  0  0  0  0  0  0
    7.8792    0.8958    0.0000 C   0  0  0  0  0  0  0  0  0  0  0  0
    9.8250   -3.5750    0.0000 C   0  0  0  0  0  0  0  0  0  0  0  0
    6.6375    1.5958    0.0000 O   0  0  0  0  0  0  0  0  0  0  0  0
    6.9000   -3.7292    0.0000 C   0  0  0  0  0  0  0  0  0  0  0  0
    6.9000   -2.0792    0.0000 C   0  0  0  0  0  0  0  0  0  0  0  0
    8.3250   -6.2167    0.0000 C   0  0  0  0  0  0  0  0  0  0  0  0
   10.3042   -2.9125    0.0000 O   0  0  0  0  0  0  0  0  0  0  0  0
    9.8250   -2.2417    0.0000 C   0  0  0  0  0  0  0  0  0  0  0  0
    7.6042   -5.8042    0.0000 C   0  0  0  0  0  0  0  0  0  0  0  0
    9.0375   -5.8042    0.0000 C   0  0  0  0  0  0  0  0  0  0  0  0
    6.1792   -2.4917    0.0000 C   0  0  0  0  0  0  0  0  0  0  0  0
    6.1792   -3.3167    0.0000 C   0  0  0  0  0  0  0  0  0  0  0  0
    7.6042   -4.9750    0.0000 C   0  0  0  0  0  0  0  0  0  0  0  0
    9.0375   -4.9750    0.0000 C   0  0  0  0  0  0  0  0  0  0  0  0
    7.8667    2.3208    0.0000 O   0  0  0  0  0  0  0  0  0  0  0  0
    7.0417    2.3125    0.0000 C   0  0  0  0  0  0  0  0  0  0  0  0
    5.4000   -3.5750    0.0000 O   0  0  0  0  0  0  0  0  0  0  0  0
    5.4000   -2.2417    0.0000 O   0  0  0  0  0  0  0  0  0  0  0  0
    8.2875    1.6083    0.0000 C   0  0  0  0  0  0  0  0  0  0  0  0
    4.9167   -2.9125    0.0000 C   0  0  0  0  0  0  0  0  0  0  0  0
   10.0792   -4.3625    0.0000 O   0  0  0  0  0  0  0  0  0  0  0  0
    6.6667   -1.2667    0.0000 O   0  0  0  0  0  0  0  0  0  0  0  0
    5.8292    0.1583    0.0000 O   0  0  0  0  0  0  0  0  0  0  0  0
    8.3292   -7.0417    0.0000 O   0  0  0  0  0  0  0  0  0  0  0  0
    6.8875   -6.2250    0.0000 O   0  0  0  0  0  0  0  0  0  0  0  0
    9.7542   -6.2250    0.0000 O   0  0  0  0  0  0  0  0  0  0  0  0
    6.6250    3.0333    0.0000 C   0  0  0  0  0  0  0  0  0  0  0  0
    6.1667   -5.8125    0.0000 C   0  0  0  0  0  0  0  0  0  0  0  0
    9.7542   -7.0542    0.0000 C   0  0  0  0  0  0  0  0  0  0  0  0
  2  1  1  0
  3  2  1  0
  4  6  1  0
  5  1  1  0
  6  5  1  0
  7 12  1  0
  8 14  1  0
  9  7  1  0
 10  9  1  0
 11  7  1  0
 12  2  1  0
  6 13  1  6
 14 11  1  0
  5 15  1  6
  8 16  1  6
 17  4  2  0
 18  3  2  0
 19 23  2  0
 20 21  1  0
 21  1  1  0
 22 26  2  0
 23 27  1  0
 24 18  1  0
 25 17  1  0
 26 13  1  0
 27 13  2  0
 28 32  1  0
 29 28  1  0
 30 25  1  0
 31 24  1  0
 14 32  1  1
 33 31  1  0
 34 15  2  0
  9 35  1  6
 10 36  1  1
 37 19  1  0
 38 22  1  0
 39 23  1  0
 40 29  1  0
 41 38  1  0
 42 39  1  0
 15 20  1  0
  3  4  1  0
 22 19  1  0
 25 24  2  0
 10  8  1  0
 33 30  1  0
 16 29  1  0
M  END
>  <ID>  (2) 


>  <MOLENAME>  (2) 
ETOPOSIDE

>  <therap>  (2) 
antineoplastic

>  <ref>  (2) 
Cancer Res. (1973), 33(12), 3123-9; J. Med. Chem. (1971), 14(10), 936-40; Cancer Chemother. Rep. (1975), 59(4), 737-42

>  <cas#>  (2) 
33419-42-0

>  <source>  (2) 
semisynthetic; VP-16-213

>  <status>  (2) 
USP, INN, BAN, JAN

>  <tradename>  (2) 
VEPESID

>  <SMILES>  (2) 
COc1cc([C@@H]2c3cc4c(cc3C(OC3O[C@@H]5COC(C)O[C@H]5[C@H](O)[C@H]3O)C3COC(=O)[C@@H]32)OCO4)cc(OC)c1O

>  <standardized_failed>  (2) 
False

$$$$

     RDKit          2D

 27 27  0  0  0  0  0  0  0  0999 V2000
    6.5000   -2.2667    0.0000 C   0  0  0  0  0  0  0  0  0  0  0  0
    7.2125   -2.6667    0.0000 C   0  0  0  0  0  0  0  0  0  0  0  0
    5.7875   -2.6792    0.0000 C   0  0  0  0  0  0  0  0  0  0  0  0
    9.8875   -1.2375    0.0000 C   0  0  0  0  0  0  0  0  0  0  0  0
   11.6542   -1.5792    0.0000 C   0  0  0  0  0  0  0  0  0  0  0  0
    6.5000   -1.4417    0.0000 C   0  0  0  0  0  0  0  0  0  0  0  0
   11.6542   -2.2542    0.0000 O   0  0  0  0  0  0  0  0  0  0  0  0
    9.8875   -0.5542    0.0000 O   0  0  0  0  0  0  0  0  0  0  0  0
    5.0750   -2.2667    0.0000 C   0  0  0  0  0  0  0  0  0  0  0  0
    5.7875   -3.5042    0.0000 C   0  0  0  0  0  0  0  0  0  0  0  0
    7.2125   -1.0167    0.0000 N   0  0  0  0  0  0  0  0  0  0  0  0
   10.4792   -1.5792    0.0000 C   0  0  0  0  0  0  0  0  0  0  0  0
   11.0667   -1.2375    0.0000 C   0  0  0  0  0  0  0  0  0  0  0  0
    7.9250   -3.0792    0.0000 O   0  0  0  0  0  0  0  0  0  0  0  0
    4.3625   -3.5042    0.0000 C   0  0  0  0  0  0  0  0  0  0  0  0
   12.2458   -1.2375    0.0000 O   0  0  0  0  0  0  0  0  0  0  0  0
    9.3000   -1.5792    0.0000 O   0  0  0  0  0  0  0  0  0  0  0  0
    4.3625   -2.6792    0.0000 C   0  0  0  0  0  0  0  0  0  0  0  0
    5.0750   -3.9167    0.0000 C   0  0  0  0  0  0  0  0  0  0  0  0
    3.6375   -3.9167    0.0000 O   0  0  0  0  0  0  0  0  0  0  0  0
    7.2125   -3.4917    0.0000 C   0  0  0  0  0  0  0  0  0  0  0  0
    7.9250   -2.2542    0.0000 C   0  0  0  0  0  0  0  0  0  0  0  0
    7.9250   -1.4292    0.0000 C   0  0  0  0  0  0  0  0  0  0  0  0
    7.2000   -0.1917    0.0000 C   0  0  0  0  0  0  0  0  0  0  0  0
    7.9250   -3.9042    0.0000 C   0  0  0  0  0  0  0  0  0  0  0  0
    8.6375   -2.6667    0.0000 C   0  0  0  0  0  0  0  0  0  0  0  0
    8.6375   -3.4917    0.0000 C   0  0  0  0  0  0  0  0  0  0  0  0
  2  1  1  0
  3  1  1  0
  5 13  1  0
  6  1  1  0
  7  5  2  0
  8  4  2  0
  9  3  2  0
 10  3  1  0
 11  6  1  0
 12  4  1  0
 13 12  1  0
 14  2  1  0
 15 19  1  0
 16  5  1  0
 17  4  1  0
 18  9  1  0
 19 10  2  0
 20 15  1  0
 21  2  1  0
 22  2  1  0
 23 11  1  0
 24 11  1  0
 25 21  1  0
 26 22  1  0
 27 25  1  0
 15 18  2  0
 26 27  1  0
M  END
>  <ID>  (3) 


>  <MOLENAME>  (3) 
DESVENLAFAXINE SUCCINATE

>  <therap>  (3) 
antidepressant

>  <ref>  (3) 
J Clin Psychiatry 68:677 (2007); Int Clin Psychopharmacol 22:338 (2007)

>  <cas#>  (3) 
93413-62-8

>  <source>  (3) 
synthetic; WY-45233

>  <status>  (3) 
USAN, INN

>  <tradename>  (3) 
PRISTIQ

>  <SMILES>  (3) 
CN(C)CC(c1ccc(O)cc1)C1(O)CCCCC1

>  <standardized_failed>  (3) 
False

$$$$

     RDKit          2D

 27 24  0  0  0  0  0  0  0  0999 V2000
    4.3954   -2.6708    0.0000 C   0  0  0  0  0  0  0  0  0  0  0  0
    5.1074   -2.2583    0.0000 O   0  0  0  0  0  0  0  0  0  0  0  0
    5.8196   -2.6701    0.0000 Sb  0  0  0  0  0  3  0  0  0  0  0  0
    4.5704   -3.4792    0.0000 C   0  0  0  0  0  0  0  0  0  0  0  0
    5.6428   -3.4784    0.0000 O   0  0  0  0  0  0  0  0  0  0  0  0
    3.6750   -1.4333    0.0000 O   0  0  0  0  0  0  0  0  0  0  0  0
    3.6750   -2.2583    0.0000 C   0  0  0  0  0  0  0  0  0  0  0  0
    4.3954   -1.0208    0.0000 Sb  0  0  0  0  0  3  0  0  0  0  0  0
    5.1074   -1.4333    0.0000 O   0  0  0  0  0  0  0  0  0  0  0  0
    6.5336   -2.2602    0.0000 O   0  0  0  0  0  0  0  0  0  0  0  0
    6.5371   -1.4352    0.0000 C   0  0  0  0  0  0  0  0  0  0  0  0
    5.8196   -1.0216    0.0000 C   0  0  0  0  0  0  0  0  0  0  0  0
    4.5704   -0.2125    0.0000 O   0  0  0  0  0  0  0  0  0  0  0  0
    5.6428   -0.2133    0.0000 C   0  0  0  0  0  0  0  0  0  0  0  0
    6.1604    0.4292    0.0000 O   0  0  0  0  0  0  0  0  0  0  0  0
    4.0526   -4.1215    0.0000 O   0  0  0  0  0  0  0  0  0  0  0  0
    7.2523   -1.0240    0.0000 C   0  0  0  0  0  0  0  0  0  0  0  0
    7.9661   -1.4378    0.0000 O   0  0  0  0  0  0  0  0  0  0  0  0
    7.2538   -0.1990    0.0000 O   0  0  0  0  0  0  0  0  0  0  0  0
    2.9613   -2.6721    0.0000 C   0  0  0  0  0  0  0  0  0  0  0  0
    2.2461   -2.2609    0.0000 O   0  0  0  0  0  0  0  0  0  0  0  0
    2.9627   -3.4971    0.0000 O   0  0  0  0  0  0  0  0  0  0  0  0
    9.4000   -1.3417    0.0000 K   0  0  0  0  0 15  0  0  0  0  0  0
    0.9375   -2.2458    0.0000 K   0  0  0  0  0 15  0  0  0  0  0  0
    8.2750   -3.3708    0.0000 O   0  0  0  0  0  0  0  0  0  0  0  0
    2.0917   -4.4625    0.0000 O   0  0  0  0  0  0  0  0  0  0  0  0
    3.1208    0.3458    0.0000 O   0  0  0  0  0  0  0  0  0  0  0  0
  9 12  1  0
  3 10  1  0
 10 11  1  0
 11 12  1  0
  1  4  1  0
  8 13  1  0
 12 14  1  0
 13 14  1  0
  3  5  1  0
 14 15  2  0
  4  5  1  0
  4 16  2  0
  6  7  1  0
 11 17  1  0
 17 18  1  0
 17 19  2  0
  2  1  1  0
  7 20  1  0
  6  8  1  0
 20 21  1  0
  7  1  1  0
 20 22  2  0
  9  8  1  0
  2  3  1  0
M  CHG  4  18  -1  21  -1  23   1  24   1
M  END
>  <ID>  (4) 


>  <MOLENAME>  (4) 
ANTIMONY POTASSIUM TARTRATE TRIHYDRATE

>  <therap>  (4) 
antischistosomal

>  <ref>  (4) 
Br J Pharmac 37:476 (1969); Environ Mutagen 4:83-91 (1982)

>  <cas#>  (4) 
28300-74-5

>  <source>  (4) 
nan

>  <status>  (4) 
USP

>  <tradename>  (4) 
nan

>  <SMILES>  (4) 
O=C([O-])C1O[Sb]2OC(=O)C(O2)C(C(=O)[O-])O[Sb]2OC(=O)C1O2.[K+].[K+]

>  <standardized_failed>  (4) 
True

$$$$

     RDKit          2D

 30 34  0  0  0  0  0  0  0  0999 V2000
    5.6792   -2.9875    0.0000 N   0  0  0  0  0  0  0  0  0  0  0  0
    7.1167   -3.0042    0.0000 C   0  0  0  0  0  0  0  0  0  0  0  0
    5.6750   -3.8167    0.0000 C   0  0  0  0  0  0  0  0  0  0  0  0
    3.2792   -1.8542    0.0000 S   0  0  0  0  0  0  0  0  0  0  0  0
    6.3875   -4.2375    0.0000 C   0  0  0  0  0  0  0  0  0  0  0  0
    4.9625   -4.2292    0.0000 C   0  0  0  0  0  0  0  0  0  0  0  0
    7.1042   -3.8375    0.0000 C   0  0  0  0  0  0  0  0  0  0  0  0
    6.4042   -2.5792    0.0000 C   0  0  0  0  0  0  0  0  0  0  0  0
    7.8417   -2.6000    0.0000 C   0  0  0  0  0  0  0  0  0  0  0  0
    4.2500   -3.8042    0.0000 C   0  0  0  0  0  0  0  0  0  0  0  0
    4.9542   -5.0542    0.0000 C   0  0  0  0  0  0  0  0  0  0  0  0
    3.5292   -4.2167    0.0000 C   0  0  0  0  0  0  0  0  0  0  0  0
    3.5375   -5.0542    0.0000 C   0  0  0  0  0  0  0  0  0  0  0  0
    6.3875   -5.0542    0.0000 C   0  0  0  0  0  0  0  0  0  0  0  0
    4.2500   -5.4542    0.0000 C   0  0  0  0  0  0  0  0  0  0  0  0
    7.8125   -4.2542    0.0000 C   0  0  0  0  0  0  0  0  0  0  0  0
    8.5542   -3.0250    0.0000 C   0  0  0  0  0  0  0  0  0  0  0  0
    3.2917   -2.4292    0.0000 O   0  0  0  0  0  0  0  0  0  0  0  0
    8.0250   -1.7917    0.0000 O   0  0  0  0  0  0  0  0  0  0  0  0
    3.8167   -1.8542    0.0000 O   0  0  0  0  0  0  0  0  0  0  0  0
    2.7417   -1.8542    0.0000 O   0  0  0  0  0  0  0  0  0  0  0  0
    2.7417   -3.9667    0.0000 O   0  0  0  0  0  0  0  0  0  0  0  0
    2.7500   -5.3125    0.0000 O   0  0  0  0  0  0  0  0  0  0  0  0
    9.1792   -2.4792    0.0000 O   0  0  0  0  0  0  0  0  0  0  0  0
    8.8542   -1.7167    0.0000 C   0  0  0  0  0  0  0  0  0  0  0  0
    2.2542   -4.6417    0.0000 C   0  0  0  0  0  0  0  0  0  0  0  0
    5.6667   -5.4667    0.0000 C   0  0  0  0  0  0  0  0  0  0  0  0
    8.5417   -3.8542    0.0000 C   0  0  0  0  0  0  0  0  0  0  0  0
    3.2667   -1.2792    0.0000 O   0  0  0  0  0  0  0  0  0  0  0  0
    4.9667   -2.5667    0.0000 C   0  0  0  0  0  0  0  0  0  0  0  0
  2  8  2  0
  3  1  2  0
  5  3  1  0
  6  3  1  0
  7  5  2  0
  8  1  1  0
  9  2  1  0
 10  6  2  0
 11  6  1  0
 12 10  1  0
 13 15  1  0
 14  5  1  0
 15 11  2  0
 16  7  1  0
 17  9  2  0
 18  4  1  0
 19  9  1  0
 20  4  2  0
 21  4  2  0
 22 12  1  0
 23 13  1  0
 24 17  1  0
 25 19  1  0
 26 22  1  0
 27 14  2  0
 28 16  2  0
 29  4  1  0
 30  1  1  0
  7  2  1  0
 27 11  1  0
 28 17  1  0
 13 12  2  0
 24 25  1  0
 26 23  1  0
M  CHG  2   1   1  18  -1
M  END
>  <ID>  (5) 


>  <MOLENAME>  (5) 
SANGUINARINE SULFATE

>  <therap>  (5) 
antineoplastic, antiplaque agent

>  <ref>  (5) 
J Heterocyclic Chem 9: 1453 (1972); J Biol Chem 280:19078 (2005); FEBS J 273:2139 (2006)

>  <cas#>  (5) 
5578-73-4

>  <source>  (5) 
Sanguinaria canadensis

>  <status>  (5) 
USAN, INN

>  <tradename>  (5) 
VIADENT

>  <SMILES>  (5) 
C[n+]1c2c3cc4c(cc3ccc2c2ccc3c(OCO3)c2c1)OCO4

>  <standardized_failed>  (5) 
False

$$$$

     RDKit          2D

 20 20  0  0  0  0  0  0  0  0999 V2000
    6.5500   -5.5542    0.0000 C   0  0  0  0  0  0  0  0  0  0  0  0
    6.1750   -4.9125    0.0000 N   0  0  0  0  0  0  0  0  0  0  0  0
    5.0500   -4.2542    0.0000 C   0  0  0  0  0  0  0  0  0  0  0  0
    5.4250   -4.9125    0.0000 C   0  0  0  0  0  0  0  0  0  0  0  0
    7.3000   -5.5542    0.0000 C   0  0  0  0  0  0  0  0  0  0  0  0
    5.4292   -3.6042    0.0000 C   0  0  0  0  0  0  0  0  0  0  0  0
    6.1750   -6.2042    0.0000 C   0  0  0  0  0  0  0  0  0  0  0  0
    7.6750   -6.2000    0.0000 C   0  0  0  0  0  0  0  0  0  0  0  0
    6.1792   -3.6042    0.0000 O   0  0  0  0  0  0  0  0  0  0  0  0
    5.0542   -2.9625    0.0000 O   0  0  0  0  0  0  0  0  0  0  0  0
    6.5500   -6.8542    0.0000 C   0  0  0  0  0  0  0  0  0  0  0  0
    7.3000   -6.8542    0.0000 C   0  0  0  0  0  0  0  0  0  0  0  0
    7.6875   -4.9000    0.0000 Cl  0  0  0  0  0  0  0  0  0  0  0  0
    5.4250   -6.2042    0.0000 Cl  0  0  0  0  0  0  0  0  0  0  0  0
    4.3000   -4.2542    0.0000 C   0  0  0  0  0  0  0  0  0  0  0  0
    7.6042   -3.3417    0.0000 Na  0  0  0  0  0 15  0  0  0  0  0  0
    5.0500   -5.5542    0.0000 C   0  0  0  0  0  0  0  0  0  0  0  0
    8.4250   -6.1917    0.0000 C   0  0  0  0  0  0  0  0  0  0  0  0
    3.9250   -4.9125    0.0000 C   0  0  0  0  0  0  0  0  0  0  0  0
    4.3000   -5.5542    0.0000 C   0  0  0  0  0  0  0  0  0  0  0  0
  2  1  1  0
  3  4  2  0
  4  2  1  0
  5  1  2  0
  6  3  1  0
  7  1  1  0
  8  5  1  0
  9  6  1  0
 10  6  2  0
 11  7  2  0
 12 11  1  0
 13  5  1  0
 14  7  1  0
 15  3  1  0
 17  4  1  0
 18  8  1  0
 19 20  1  0
 20 17  2  0
  8 12  2  0
 19 15  2  0
M  CHG  2   9  -1  16   1
M  END
>  <ID>  (6) 


>  <MOLENAME>  (6) 
MECLOFENAMATE SODIUM

>  <therap>  (6) 
antiinflammatory, antipyretic

>  <ref>  (6) 
Arzneim Forsch 33:619 (1983); Lancet 2:541 (1988)

>  <cas#>  (6) 
6385-02-0

>  <source>  (6) 
synthetic; Cl-583

>  <status>  (6) 
USP

>  <tradename>  (6) 
MECLOMEN

>  <SMILES>  (6) 
Cc1ccc(Cl)c(Nc2c(C(=O)O)cccc2)c1Cl

>  <standardized_failed>  (6) 
False

$$$$

     RDKit          2D

 25 28  0  0  0  0  0  0  0  0999 V2000
    5.5417   -6.9417    0.0000 C   0  0  0  0  0  0  0  0  0  0  0  0
    7.6875   -5.7000    0.0000 C   0  0  0  0  0  0  0  0  0  0  0  0
    5.5417   -7.7667    0.0000 C   0  0  0  0  0  0  0  0  0  0  0  0
    6.2542   -6.5292    0.0000 C   0  0  0  0  0  0  0  0  0  0  0  0
    6.9667   -6.9417    0.0000 C   0  0  0  0  0  0  0  0  0  0  0  0
    7.6875   -6.5292    0.0000 C   0  0  0  0  0  0  0  0  0  0  0  0
    6.9667   -5.2875    0.0000 C   0  0  0  0  0  0  0  0  0  0  0  0
    6.2542   -5.7000    0.0000 C   0  0  0  0  0  0  0  0  0  0  0  0
    8.4667   -5.4417    0.0000 C   0  0  0  0  0  0  0  0  0  0  0  0
    6.9667   -7.7667    0.0000 C   0  0  0  0  0  0  0  0  0  0  0  0
    4.8292   -8.1792    0.0000 C   0  0  0  0  0  0  0  0  0  0  0  0
    6.2542   -8.1792    0.0000 C   0  0  0  0  0  0  0  0  0  0  0  0
    4.8292   -6.5292    0.0000 C   0  0  0  0  0  0  0  0  0  0  0  0
    8.4667   -6.7792    0.0000 C   0  0  0  0  0  0  0  0  0  0  0  0
    8.9542   -6.1125    0.0000 C   0  0  0  0  0  0  0  0  0  0  0  0
    8.7250   -4.6542    0.0000 C   0  0  0  0  0  0  0  0  0  0  0  0
    4.1125   -7.7667    0.0000 C   0  0  0  0  0  0  0  0  0  0  0  0
    9.5292   -4.4792    0.0000 O   0  0  0  0  0  0  0  0  0  0  0  0
    3.3917   -8.1917    0.0000 O   0  0  0  0  0  0  0  0  0  0  0  0
    4.1125   -6.9417    0.0000 C   0  0  0  0  0  0  0  0  0  0  0  0
    5.5417   -6.1125    0.0000 C   0  0  0  0  0  0  0  0  0  0  0  0
    7.7000   -4.8667    0.0000 C   0  0  0  0  0  0  0  0  0  0  0  0
    5.5292   -5.2750    0.0000 O   0  0  0  0  0  0  0  0  0  0  0  0
    6.2542   -9.0042    0.0000 C   0  0  0  0  0  0  0  0  0  0  0  0
    8.1667   -4.0417    0.0000 C   0  0  0  0  0  0  0  0  0  0  0  0
  2  7  1  0
  3  1  1  0
  4  1  1  0
  5  4  1  0
  6  5  1  0
  7  8  1  0
  8  4  1  0
  9  2  1  0
 10  5  1  0
 11  3  2  0
 12  3  1  0
 13  1  1  0
 14  6  1  0
 15 14  1  0
  9 16  1  1
 17 20  1  0
 18 16  2  0
 19 17  2  0
 20 13  1  0
  1 21  1  1
  2 22  1  1
  8 23  1  1
 12 24  1  6
 25 16  1  0
 10 12  1  0
 11 17  1  0
  6  2  1  0
  9 15  1  0
M  END
>  <ID>  (7) 


>  <MOLENAME>  (7) 
MEDRYSONE

>  <therap>  (7) 
glucocorticoid

>  <ref>  (7) 
Arch Opthamol 81:184 (1969)

>  <cas#>  (7) 
2668-66-8

>  <source>  (7) 
semisynthetic; U-8471, NSC-63278

>  <status>  (7) 
USAN, INN

>  <tradename>  (7) 
HMS

>  <SMILES>  (7) 
CC(=O)[C@H]1CCC2C3C[C@H](C)C4=CC(=O)CC[C@]4(C)C3[C@@H](O)C[C@@]21C

>  <standardized_failed>  (7) 
False

$$$$

     RDKit          2D

 28 31  0  0  0  0  0  0  0  0999 V2000
    4.3750   -4.8417    0.0000 C   0  0  0  0  0  0  0  0  0  0  0  0
    4.3750   -4.0167    0.0000 C   0  0  0  0  0  0  0  0  0  0  0  0
    6.5167   -2.7750    0.0000 C   0  0  0  0  0  0  0  0  0  0  0  0
    7.3000   -2.5250    0.0000 C   0  0  0  0  0  0  0  0  0  0  0  0
    5.8000   -4.0167    0.0000 C   0  0  0  0  0  0  0  0  0  0  0  0
    5.8000   -4.8417    0.0000 C   0  0  0  0  0  0  0  0  0  0  0  0
    5.0875   -3.6042    0.0000 C   0  0  0  0  0  0  0  0  0  0  0  0
    6.5167   -3.6042    0.0000 C   0  0  0  0  0  0  0  0  0  0  0  0
    5.0875   -5.2542    0.0000 C   0  0  0  0  0  0  0  0  0  0  0  0
    3.6625   -5.2542    0.0000 C   0  0  0  0  0  0  0  0  0  0  0  0
    5.8000   -2.3625    0.0000 C   0  0  0  0  0  0  0  0  0  0  0  0
    7.7875   -3.1875    0.0000 C   0  0  0  0  0  0  0  0  0  0  0  0
    8.1625   -2.7250    0.0000 O   0  0  0  0  0  0  0  0  0  0  0  0
    5.0875   -2.7750    0.0000 C   0  0  0  0  0  0  0  0  0  0  0  0
    7.3000   -3.8625    0.0000 C   0  0  0  0  0  0  0  0  0  0  0  0
    3.6625   -3.6042    0.0000 C   0  0  0  0  0  0  0  0  0  0  0  0
    7.6375   -1.7667    0.0000 C   0  0  0  0  0  0  0  0  0  0  0  0
    8.9125   -2.8500    0.0000 C   0  0  0  0  0  0  0  0  0  0  0  0
    2.9417   -4.8417    0.0000 C   0  0  0  0  0  0  0  0  0  0  0  0
    9.2500   -2.2875    0.0000 O   0  0  0  0  0  0  0  0  0  0  0  0
    8.4625   -1.6792    0.0000 O   0  0  0  0  0  0  0  0  0  0  0  0
    2.2250   -5.2542    0.0000 O   0  0  0  0  0  0  0  0  0  0  0  0
    2.9417   -4.0167    0.0000 C   0  0  0  0  0  0  0  0  0  0  0  0
    4.3750   -3.1875    0.0000 C   0  0  0  0  0  0  0  0  0  0  0  0
    6.5125   -1.9500    0.0000 C   0  0  0  0  0  0  0  0  0  0  0  0
    5.0875   -6.0792    0.0000 C   0  0  0  0  0  0  0  0  0  0  0  0
    9.2500   -3.3750    0.0000 C   0  0  0  0  0  0  0  0  0  0  0  0
    7.1500   -1.1000    0.0000 C   0  0  0  0  0  0  0  0  0  0  0  0
  2  1  1  0
  3  8  1  0
  4  3  1  0
  5  6  1  0
  6  9  2  0
  7  2  1  0
  8  5  1  0
  9  1  1  0
 10  1  2  0
 11 14  1  0
 12 15  1  0
  4 13  1  6
 14  7  1  0
 15  8  1  0
 16  2  1  0
 17  4  1  0
 18 13  1  0
 19 10  1  0
 20 18  2  0
 21 17  2  0
 22 19  2  0
 23 19  1  0
 24  2  1  0
 25  3  1  0
 26  9  1  0
 27 18  1  0
 28 17  1  0
  7  5  1  0
 16 23  1  0
 11  3  1  0
 12  4  1  0
M  END
>  <ID>  (8) 


>  <MOLENAME>  (8) 
MEGESTROL ACETATE

>  <therap>  (8) 
progestogen, antineoplastic

>  <ref>  (8) 
Steroids 11:133 (1968); 12:517, 689 (1968); N Engl J Med 331:347 (1994)

>  <cas#>  (8) 
595-33-5, 3562-63-8 [megestrol]

>  <source>  (8) 
semisynthetic; BDH-1298, SC-10363, 5071

>  <status>  (8) 
USP, INN, BAN

>  <tradename>  (8) 
MEGACE

>  <SMILES>  (8) 
CC(=O)O[C@]1(C(C)=O)CCC2C3C=C(C)C4=CC(=O)CCC4(C)C3CCC21C

>  <standardized_failed>  (8) 
False

$$$$

     RDKit          2D

 19 19  0  0  0  0  0  0  0  0999 V2000
    8.0375   -7.9417    0.0000 C   0  0  0  0  0  0  0  0  0  0  0  0
    8.4500   -7.2292    0.0000 C   0  0  0  0  0  0  0  0  0  0  0  0
    5.5542   -6.5167    0.0000 C   0  0  0  0  0  0  0  0  0  0  0  0
    4.7292   -6.5167    0.0000 N   0  0  0  0  0  0  0  0  0  0  0  0
    7.2042   -7.9417    0.0000 O   0  0  0  0  0  0  0  0  0  0  0  0
    8.0375   -6.5167    0.0000 C   0  0  0  0  0  0  0  0  0  0  0  0
    5.9667   -7.2292    0.0000 C   0  0  0  0  0  0  0  0  0  0  0  0
    5.9667   -5.8042    0.0000 C   0  0  0  0  0  0  0  0  0  0  0  0
    7.2125   -6.5167    0.0000 C   0  0  0  0  0  0  0  0  0  0  0  0
    9.2792   -7.2292    0.0000 N   0  0  0  0  0  0  0  0  0  0  0  0
    8.4500   -8.6542    0.0000 O   0  0  0  0  0  0  0  0  0  0  0  0
    6.8000   -5.8042    0.0000 C   0  0  0  0  0  0  0  0  0  0  0  0
    6.8000   -7.2292    0.0000 C   0  0  0  0  0  0  0  0  0  0  0  0
    4.3167   -4.3667    0.0000 Cl  0  0  0  0  0  0  0  0  0  0  0  0
    3.0792   -7.9417    0.0000 Cl  0  0  0  0  0  0  0  0  0  0  0  0
    4.3167   -7.2292    0.0000 C   0  0  0  0  0  0  0  0  0  0  0  0
    4.3167   -5.8042    0.0000 C   0  0  0  0  0  0  0  0  0  0  0  0
    3.4917   -7.2292    0.0000 C   0  0  0  0  0  0  0  0  0  0  0  0
    4.7292   -5.0875    0.0000 C   0  0  0  0  0  0  0  0  0  0  0  0
  2  1  1  0
  3  7  2  0
  4  3  1  0
  5  1  2  0
  2  6  1  0
  7 13  1  0
  8 12  2  0
  9  6  1  0
  2 10  1  6
 11  1  1  0
 12  9  1  0
 13  9  2  0
 14 19  1  0
 15 18  1  0
 16  4  1  0
 17  4  1  0
 18 16  1  0
 19 17  1  0
  3  8  1  0
M  END
>  <ID>  (9) 


>  <MOLENAME>  (9) 
MELPHALAN

>  <therap>  (9) 
antineoplastic, alkylating agent

>  <ref>  (9) 
Biochem Pharmacol 13:969 (1964); J Pharm Pharmacol 18:760 (1966)

>  <cas#>  (9) 
148-82-3

>  <source>  (9) 
synthetic

>  <status>  (9) 
USP, INN, BAN, JAN

>  <tradename>  (9) 
ALKERAN

>  <SMILES>  (9) 
N[C@@H](Cc1ccc(N(CCCl)CCCl)cc1)C(=O)O

>  <standardized_failed>  (9) 
False

$$$$

     RDKit          2D

 90 96  0  0  0  0  0  0  0  0999 V2000
    3.1000   -2.6667    0.0000 C   0  0  0  0  0  0  0  0  0  0  0  0
    2.6875   -1.9667    0.0000 C   0  0  0  0  0  0  0  0  0  0  0  0
    1.8667   -1.9667    0.0000 C   0  0  0  0  0  0  0  0  0  0  0  0
    3.1000   -1.2542    0.0000 N   0  0  0  0  0  0  0  0  0  0  0  0
    2.6917   -3.3792    0.0000 C   0  0  0  0  0  0  0  0  0  0  0  0
    2.6875   -0.5542    0.0000 C   0  0  0  0  0  0  0  0  0  0  0  0
    1.4625   -2.6667    0.0000 C   0  0  0  0  0  0  0  0  0  0  0  0
    8.9750    1.5833    0.0000 N   0  0  0  0  0  0  0  0  0  0  0  0
    8.7000   -3.7167    0.0000 N   0  0  0  0  0  0  0  0  0  0  0  0
    7.9875   -4.1292    0.0000 C   0  0  0  0  0  0  0  0  0  0  0  0
    8.2625    1.1708    0.0000 C   0  0  0  0  0  0  0  0  0  0  0  0
    5.6167    0.0458    0.0000 N   0  0  0  0  0  0  0  0  0  0  0  0
    5.3417   -5.0542    0.0000 N   0  0  0  0  0  0  0  0  0  0  0  0
    6.0250   -0.6667    0.0000 C   0  0  0  0  0  0  0  0  0  0  0  0
    5.6500   -6.0000    0.0000 C   0  0  0  0  0  0  0  0  0  0  0  0
    3.9250   -2.6667    0.0000 C   0  0  0  0  0  0  0  0  0  0  0  0
    1.8667   -3.3792    0.0000 C   0  0  0  0  0  0  0  0  0  0  0  0
    5.6167    0.8708    0.0000 C   0  0  0  0  0  0  0  0  0  0  0  0
    5.3417   -4.2292    0.0000 C   0  0  0  0  0  0  0  0  0  0  0  0
    3.1000    0.1583    0.0000 C   0  0  0  0  0  0  0  0  0  0  0  0
    1.4625   -1.2542    0.0000 O   0  0  0  0  0  0  0  0  0  0  0  0
    6.5625   -4.1417    0.0000 N   0  0  0  0  0  0  0  0  0  0  0  0
    6.9292    1.0250    0.0000 N   0  0  0  0  0  0  0  0  0  0  0  0
    6.1250    1.3625    0.0000 C   0  0  0  0  0  0  0  0  0  0  0  0
    5.8500   -3.7292    0.0000 C   0  0  0  0  0  0  0  0  0  0  0  0
    9.9000    0.4458    0.0000 C   0  0  0  0  0  0  0  0  0  0  0  0
    9.6250   -4.8542    0.0000 C   0  0  0  0  0  0  0  0  0  0  0  0
    7.6042   -0.6167    0.0000 N   0  0  0  0  0  0  0  0  0  0  0  0
    7.3292   -5.9292    0.0000 N   0  0  0  0  0  0  0  0  0  0  0  0
    9.7292   -0.4542    0.0000 N   0  0  0  0  0  0  0  0  0  0  0  0
    9.4542   -5.7667    0.0000 N   0  0  0  0  0  0  0  0  0  0  0  0
    1.8667   -0.5417    0.0000 C   0  0  0  0  0  0  0  0  0  0  0  0
    8.3542   -1.1417    0.0000 C   0  0  0  0  0  0  0  0  0  0  0  0
    8.0792   -6.4542    0.0000 C   0  0  0  0  0  0  0  0  0  0  0  0
    7.2750   -3.7292    0.0000 C   0  0  0  0  0  0  0  0  0  0  0  0
    7.5500    1.5833    0.0000 C   0  0  0  0  0  0  0  0  0  0  0  0
    3.9250    0.1583    0.0000 C   0  0  0  0  0  0  0  0  0  0  0  0
    9.4500   -4.0542    0.0000 C   0  0  0  0  0  0  0  0  0  0  0  0
    9.7250    1.2583    0.0000 C   0  0  0  0  0  0  0  0  0  0  0  0
    6.7125   -0.9417    0.0000 C   0  0  0  0  0  0  0  0  0  0  0  0
    6.4875   -6.4542    0.0000 C   0  0  0  0  0  0  0  0  0  0  0  0
    4.1542   -3.3792    0.0000 O   0  0  0  0  0  0  0  0  0  0  0  0
    9.3542   -1.2667    0.0000 C   0  0  0  0  0  0  0  0  0  0  0  0
    9.0792   -6.5792    0.0000 C   0  0  0  0  0  0  0  0  0  0  0  0
    4.1542    0.9000    0.0000 O   0  0  0  0  0  0  0  0  0  0  0  0
    4.6542   -3.9792    0.0000 C   0  0  0  0  0  0  0  0  0  0  0  0
    4.9292    1.1208    0.0000 C   0  0  0  0  0  0  0  0  0  0  0  0
    2.6875    0.8708    0.0000 C   0  0  0  0  0  0  0  0  0  0  0  0
    8.2625    0.4708    0.0000 O   0  0  0  0  0  0  0  0  0  0  0  0
    7.9875   -4.8417    0.0000 O   0  0  0  0  0  0  0  0  0  0  0  0
    4.9667   -6.5625    0.0000 O   0  0  0  0  0  0  0  0  0  0  0  0
    5.5250   -1.1917    0.0000 O   0  0  0  0  0  0  0  0  0  0  0  0
    4.4292   -2.0667    0.0000 O   0  0  0  0  0  0  0  0  0  0  0  0
    1.4542    0.1583    0.0000 C   0  0  0  0  0  0  0  0  0  0  0  0
   10.4250   -4.8667    0.0000 O   0  0  0  0  0  0  0  0  0  0  0  0
   10.7000    0.4458    0.0000 O   0  0  0  0  0  0  0  0  0  0  0  0
    1.4500   -4.0917    0.0000 O   0  0  0  0  0  0  0  0  0  0  0  0
    5.8500   -2.9042    0.0000 O   0  0  0  0  0  0  0  0  0  0  0  0
    6.1167    2.0583    0.0000 O   0  0  0  0  0  0  0  0  0  0  0  0
    7.8000   -7.0542    0.0000 O   0  0  0  0  0  0  0  0  0  0  0  0
    8.0750   -1.7417    0.0000 O   0  0  0  0  0  0  0  0  0  0  0  0
    4.1375   -0.6417    0.0000 O   0  0  0  0  0  0  0  0  0  0  0  0
    3.1042   -4.0917    0.0000 N   0  0  0  0  0  0  0  0  0  0  0  0
    1.8625    0.8708    0.0000 C   0  0  0  0  0  0  0  0  0  0  0  0
    7.5500    2.4083    0.0000 C   0  0  0  0  0  0  0  0  0  0  0  0
    7.2750   -2.9042    0.0000 C   0  0  0  0  0  0  0  0  0  0  0  0
    9.0625    2.4083    0.0000 C   0  0  0  0  0  0  0  0  0  0  0  0
    8.7875   -2.9042    0.0000 C   0  0  0  0  0  0  0  0  0  0  0  0
    6.4625   -7.0917    0.0000 C   0  0  0  0  0  0  0  0  0  0  0  0
    6.7417   -1.6000    0.0000 C   0  0  0  0  0  0  0  0  0  0  0  0
    0.6375   -2.6667    0.0000 C   0  0  0  0  0  0  0  0  0  0  0  0
    7.2667   -5.1167    0.0000 C   0  0  0  0  0  0  0  0  0  0  0  0
    7.5417    0.1958    0.0000 C   0  0  0  0  0  0  0  0  0  0  0  0
   10.1750   -6.0167    0.0000 C   0  0  0  0  0  0  0  0  0  0  0  0
   10.4500   -0.7042    0.0000 C   0  0  0  0  0  0  0  0  0  0  0  0
   10.0000   -3.4417    0.0000 C   0  0  0  0  0  0  0  0  0  0  0  0
   10.2667    1.8708    0.0000 C   0  0  0  0  0  0  0  0  0  0  0  0
    9.8625    2.5833    0.0000 C   0  0  0  0  0  0  0  0  0  0  0  0
    9.5875   -2.7292    0.0000 C   0  0  0  0  0  0  0  0  0  0  0  0
    4.9292    1.9583    0.0000 C   0  0  0  0  0  0  0  0  0  0  0  0
    4.2417   -4.5667    0.0000 C   0  0  0  0  0  0  0  0  0  0  0  0
    0.6292    0.1583    0.0000 C   0  0  0  0  0  0  0  0  0  0  0  0
    6.8292    2.8208    0.0000 C   0  0  0  0  0  0  0  0  0  0  0  0
    8.2625    2.8208    0.0000 C   0  0  0  0  0  0  0  0  0  0  0  0
    7.9875   -2.4792    0.0000 C   0  0  0  0  0  0  0  0  0  0  0  0
    6.5542   -2.4917    0.0000 C   0  0  0  0  0  0  0  0  0  0  0  0
    6.0875   -1.9417    0.0000 C   0  0  0  0  0  0  0  0  0  0  0  0
    7.3375   -1.9125    0.0000 C   0  0  0  0  0  0  0  0  0  0  0  0
    5.8042   -7.5292    0.0000 C   0  0  0  0  0  0  0  0  0  0  0  0
    7.1792   -7.5000    0.0000 C   0  0  0  0  0  0  0  0  0  0  0  0
  2  1  1  0
  3  2  1  0
  4  2  2  0
  5  1  2  0
  6  4  1  0
  7 17  1  0
  8 11  1  0
  9 10  1  0
 10 35  1  0
 11 36  1  0
 12 18  1  0
 13 19  1  0
 14 12  1  0
 15 13  1  0
 16  1  1  0
 17  5  1  0
 18 47  1  0
 19 46  1  0
 20  6  2  0
 21  3  1  0
 22 25  1  0
 23 24  1  0
 24 18  1  0
 25 19  1  0
 26 39  1  0
 27 38  1  0
 28 40  1  0
 29 41  1  0
 30 43  1  0
 31 44  1  0
 32  6  1  0
 33 28  1  0
 34 29  1  0
 35 22  1  0
 36 23  1  0
 37 20  1  0
 38  9  1  0
 39  8  1  0
 40 14  1  0
 41 15  1  0
 42 16  1  0
 43 33  1  0
 44 34  1  0
 45 37  1  0
 46 42  1  0
 47 45  1  0
 48 20  1  0
 49 11  2  0
 50 10  2  0
 51 15  2  0
 52 14  2  0
 53 16  2  0
 54 32  2  0
 55 27  2  0
 56 26  2  0
 57 17  2  0
 58 25  2  0
 59 24  2  0
 60 34  2  0
 61 33  2  0
 62 37  2  0
 63  5  1  0
 64 54  1  0
 65 36  1  0
 66 35  1  0
 67  8  1  0
 68  9  1  0
 69 41  1  0
 70 40  1  0
 71  7  1  0
 72 29  1  0
 73 28  1  0
 74 31  1  0
 75 30  1  0
 76 38  1  0
 77 39  1  0
 78 67  1  0
 79 68  1  0
 80 47  1  0
 81 46  1  0
 82 54  1  0
 83 65  1  0
 84 65  1  0
 85 66  1  0
 86 66  1  0
 87 70  1  0
 88 70  1  0
 89 69  1  0
 90 69  1  0
  7  3  2  0
 32 21  1  0
 64 48  2  0
 79 76  1  0
 31 27  1  0
 78 77  1  0
 30 26  1  0
M  END
>  <ID>  (10) 


>  <MOLENAME>  (10) 
DACTINOMYCIN

>  <therap>  (10) 
antineoplastic, intercalating agent

>  <ref>  (10) 
Ann NY Acad Sci 89:348 (1960); IARC Monographs 12:29 (1976)

>  <cas#>  (10) 
50-76-0

>  <source>  (10) 
Actinomyces spp; NSC-3053

>  <status>  (10) 
USP, INN, BAN, JAN

>  <tradename>  (10) 
COSMEGEN

>  <SMILES>  (10) 
Cc1c2oc3c(C)ccc(C(=O)OC(C)C4NC(=O)C(C(C)C)N(C)C(=O)CN(C)C(=O)C5CCCN5C(=O)C(C(C)C)NC4=O)c3nc-2c(C(=O)OC(C)C2NC(=O)C(C(C)C)N(C)C(=O)CN(C)C(=O)C3CCCN3C(=O)C(C(C)C)NC2=O)c(N)c1=O

>  <standardized_failed>  (10) 
False

$$$$

     RDKit          2D

 15 15  0  0  0  0  0  0  0  0999 V2000
    2.6667   -1.9875    0.0000 C   0  0  0  0  0  0  0  0  0  0  0  0
    2.2917   -2.6375    0.0000 C   0  0  0  0  0  0  0  0  0  0  0  0
    2.2917   -1.3417    0.0000 C   0  0  0  0  0  0  0  0  0  0  0  0
    1.5417   -2.6375    0.0000 C   0  0  0  0  0  0  0  0  0  0  0  0
    1.5417   -1.3417    0.0000 C   0  0  0  0  0  0  0  0  0  0  0  0
    1.1667   -1.9875    0.0000 C   0  0  0  0  0  0  0  0  0  0  0  0
    4.5417   -1.3375    0.0000 N   0  0  0  0  0  0  0  0  0  0  0  0
    3.4167   -1.9875    0.0000 C   0  0  0  0  0  0  0  0  0  0  0  0
    3.7917   -1.3375    0.0000 C   0  0  0  0  0  0  0  0  0  0  0  0
    1.1667   -3.2917    0.0000 O   0  0  0  0  0  0  0  0  0  0  0  0
    1.1625   -0.6875    0.0000 O   0  0  0  0  0  0  0  0  0  0  0  0
    3.7917   -2.6292    0.0000 O   0  0  0  0  0  0  0  0  0  0  0  0
    4.9167   -0.6917    0.0000 C   0  0  0  0  0  0  0  0  0  0  0  0
    5.6667   -0.6917    0.0000 C   0  0  0  0  0  0  0  0  0  0  0  0
    4.5417   -0.0417    0.0000 C   0  0  0  0  0  0  0  0  0  0  0  0
  2  1  2  0
  3  1  1  0
  4  2  1  0
  5  3  2  0
  6  5  1  0
  7  9  1  0
  8  1  1  0
  9  8  1  0
 10  4  1  0
 11  5  1  0
 12  8  1  0
 13  7  1  0
 14 13  1  0
 15 13  1  0
  4  6  2  0
M  END
>  <ID>  (11) 


>  <MOLENAME>  (11) 
METAPROTERENOL

>  <therap>  (11) 
bronchodilator

>  <ref>  (11) 
Am J Med Sci 253:321 (1967); Toxicol Appl Pharmacol 18:185 (1971)

>  <cas#>  (11) 
586-06-1, 5874-97-5 [metaproterenol sulfate]

>  <source>  (11) 
synthetic

>  <status>  (11) 
USP, JAN

>  <tradename>  (11) 
ALUPENT

>  <SMILES>  (11) 
CC(C)NCC(O)c1cc(O)cc(O)c1

>  <standardized_failed>  (11) 
False

$$$$

     RDKit          2D

 24 23  0  0  0  0  0  0  0  0999 V2000
    9.8000   -3.5667    0.0000 C   0  0  0  0  0  0  0  0  0  0  0  0
   10.2167   -2.8542    0.0000 O   0  0  0  0  0  0  0  0  0  0  0  0
    4.8542   -2.1292    0.0000 C   0  0  0  0  0  0  0  0  0  0  0  0
    4.0292   -2.1292    0.0000 C   0  0  0  0  0  0  0  0  0  0  0  0
    3.2042   -2.1292    0.0000 C   0  0  0  0  0  0  0  0  0  0  0  0
    2.3792   -2.1292    0.0000 C   0  0  0  0  0  0  0  0  0  0  0  0
    1.5542   -2.1292    0.0000 C   0  0  0  0  0  0  0  0  0  0  0  0
    0.7292   -2.1292    0.0000 C   0  0  0  0  0  0  0  0  0  0  0  0
    6.5042   -2.1292    0.0000 C   0  0  0  0  0  0  0  0  0  0  0  0
    5.6792   -2.1292    0.0000 C   0  0  0  0  0  0  0  0  0  0  0  0
   -0.0958   -2.1292    0.0000 C   0  0  0  0  0  0  0  0  0  0  0  0
    7.3292   -2.1292    0.0000 C   0  0  0  0  0  0  0  0  0  0  0  0
   10.2042   -4.2792    0.0000 O   0  0  0  0  0  0  0  0  0  0  0  0
    6.0917   -2.8417    0.0000 C   0  0  0  0  0  0  0  0  0  0  0  0
    4.4417   -2.8417    0.0000 C   0  0  0  0  0  0  0  0  0  0  0  0
    1.1417   -2.8417    0.0000 C   0  0  0  0  0  0  0  0  0  0  0  0
    2.7917   -2.8417    0.0000 C   0  0  0  0  0  0  0  0  0  0  0  0
    8.9750   -3.5625    0.0000 C   0  0  0  0  0  0  0  0  0  0  0  0
   -0.5083   -2.8417    0.0000 C   0  0  0  0  0  0  0  0  0  0  0  0
    7.7417   -2.8417    0.0000 C   0  0  0  0  0  0  0  0  0  0  0  0
   11.0375   -4.2792    0.0000 C   0  0  0  0  0  0  0  0  0  0  0  0
    8.5667   -2.8500    0.0000 C   0  0  0  0  0  0  0  0  0  0  0  0
   -1.3333   -2.8417    0.0000 C   0  0  0  0  0  0  0  0  0  0  0  0
   11.4500   -5.0000    0.0000 C   0  0  0  0  0  0  0  0  0  0  0  0
  2  1  2  0
  3 10  2  0
  4 15  1  0
  5  4  2  0
  6 17  1  0
  7  6  2  0
  8 16  1  0
  9 12  2  0
 10 14  1  0
 11  8  2  0
 12 20  1  0
 13  1  1  0
 14  9  1  0
 15  3  1  0
 16  7  1  0
 17  5  1  0
 18  1  1  0
 19 11  1  0
 20 22  1  0
 21 13  1  0
 22 18  1  0
 23 19  1  0
 24 21  1  0
M  END
>  <ID>  (12) 


>  <MOLENAME>  (12) 
OMEGA-3-ACID ESTERS (EPA shown)

>  <therap>  (12) 
hypolipidemic

>  <ref>  (12) 
Metab., Clin. Exp. (1999), 48(9), 1089-1095; Eur. J. Pharmacol. (1993), 235(2-3), 221-7; Eur. J. Pharmacol. (1993), 231(1), 121-7

>  <cas#>  (12) 
86227-47-6

>  <source>  (12) 
semisynthetic; K-85

>  <status>  (12) 
USAN

>  <tradename>  (12) 
LOVAZA

>  <SMILES>  (12) 
CC/C=C\C/C=C\C/C=C\C/C=C\C/C=C\CCCC(=O)OCC

>  <standardized_failed>  (12) 
False

$$$$

     RDKit          2D

  7  7  0  0  0  0  0  0  0  0999 V2000
    6.0542   -3.7042    0.0000 C   0  0  0  0  0  0  0  0  0  0  0  0
    5.3417   -3.2917    0.0000 N   0  0  0  0  0  0  0  0  0  0  0  0
    5.8792   -4.5042    0.0000 N   0  0  0  0  0  0  0  0  0  0  0  0
    6.8250   -3.3667    0.0000 S   0  0  0  0  0  0  0  0  0  0  0  0
    5.0667   -4.5917    0.0000 C   0  0  0  0  0  0  0  0  0  0  0  0
    4.7292   -3.8500    0.0000 C   0  0  0  0  0  0  0  0  0  0  0  0
    5.2625   -2.4667    0.0000 C   0  0  0  0  0  0  0  0  0  0  0  0
  2  1  1  0
  3  1  1  0
  4  1  2  0
  5  3  1  0
  6  2  1  0
  7  2  1  0
  5  6  2  0
M  END
>  <ID>  (13) 


>  <MOLENAME>  (13) 
METHIMAZOLE

>  <therap>  (13) 
antihyperthyroid

>  <ref>  (13) 
Exp. Clin. Endocrinol. Diabetes (2010), 118(10), 678-684. ; Med. Chem. (2010), 6(4), 239-246; J. Clin. Pharmacol. (1981), 21(8-9), 365-84

>  <cas#>  (13) 
60-56-0

>  <source>  (13) 
synthetic

>  <status>  (13) 
USP, INN, BAN, JAN

>  <tradename>  (13) 
TAPAZOLE

>  <SMILES>  (13) 
Cn1cc[nH]c1=S

>  <standardized_failed>  (13) 
False

$$$$

     RDKit          2D

 17 17  0  0  0  0  0  0  0  0999 V2000
    3.7417   -0.8542    0.0000 C   0  0  0  0  0  0  0  0  0  0  0  0
    2.2417   -2.1542    0.0000 O   0  0  0  0  0  0  0  0  0  0  0  0
    3.3667   -0.2042    0.0000 O   0  0  0  0  0  0  0  0  0  0  0  0
    1.4917   -2.1542    0.0000 C   0  0  0  0  0  0  0  0  0  0  0  0
    3.3667   -1.5042    0.0000 O   0  0  0  0  0  0  0  0  0  0  0  0
    1.1167   -2.8042    0.0000 C   0  0  0  0  0  0  0  0  0  0  0  0
    4.4917   -0.8542    0.0000 N   0  0  0  0  0  0  0  0  0  0  0  0
    3.3667   -2.8042    0.0000 C   0  0  0  0  0  0  0  0  0  0  0  0
    2.6167   -2.8042    0.0000 C   0  0  0  0  0  0  0  0  0  0  0  0
    3.7417   -2.1542    0.0000 C   0  0  0  0  0  0  0  0  0  0  0  0
    1.5000   -3.4542    0.0000 O   0  0  0  0  0  0  0  0  0  0  0  0
    3.7417   -3.4500    0.0000 O   0  0  0  0  0  0  0  0  0  0  0  0
    1.1167   -1.5042    0.0000 C   0  0  0  0  0  0  0  0  0  0  0  0
    0.3667   -2.8042    0.0000 C   0  0  0  0  0  0  0  0  0  0  0  0
    2.2500   -3.4542    0.0000 C   0  0  0  0  0  0  0  0  0  0  0  0
    0.3667   -1.5042    0.0000 C   0  0  0  0  0  0  0  0  0  0  0  0
   -0.0083   -2.1542    0.0000 C   0  0  0  0  0  0  0  0  0  0  0  0
  2  9  1  0
  3  1  2  0
  4  2  1  0
  5  1  1  0
  6  4  2  0
  7  1  1  0
  8 10  1  0
  9  8  1  0
 10  5  1  0
 11  6  1  0
 12  8  1  0
 13  4  1  0
 14  6  1  0
 15 11  1  0
 16 13  2  0
 17 16  1  0
 14 17  2  0
M  END
>  <ID>  (14) 


>  <MOLENAME>  (14) 
METHOCARBAMOL

>  <therap>  (14) 
muscle relaxant (skeletal)

>  <ref>  (14) 
Anal Profiles Drug SubsExcip 23:371 (1994)

>  <cas#>  (14) 
532-03-6

>  <source>  (14) 
synthetic

>  <status>  (14) 
USP, INN, BAN, JAN

>  <tradename>  (14) 
ROBAXIN

>  <SMILES>  (14) 
COc1c(OCC(O)COC(N)=O)cccc1

>  <standardized_failed>  (14) 
False

$$$$

     RDKit          2D

 33 35  0  0  0  0  0  0  0  0999 V2000
    2.0042   -5.6417    0.0000 N   0  0  0  0  0  0  0  0  0  0  0  0
    2.7292   -4.4042    0.0000 N   0  0  0  0  0  0  0  0  0  0  0  0
    3.4417   -5.6417    0.0000 C   0  0  0  0  0  0  0  0  0  0  0  0
    3.4417   -4.8167    0.0000 C   0  0  0  0  0  0  0  0  0  0  0  0
    2.7292   -6.0542    0.0000 C   0  0  0  0  0  0  0  0  0  0  0  0
    2.0042   -4.8167    0.0000 C   0  0  0  0  0  0  0  0  0  0  0  0
    4.1542   -6.0542    0.0000 N   0  0  0  0  0  0  0  0  0  0  0  0
    6.2917   -2.3292    0.0000 C   0  0  0  0  0  0  0  0  0  0  0  0
    4.1542   -4.4042    0.0000 N   0  0  0  0  0  0  0  0  0  0  0  0
    7.0042   -1.9167    0.0000 N   0  0  0  0  0  0  0  0  0  0  0  0
    4.8667   -5.6417    0.0000 C   0  0  0  0  0  0  0  0  0  0  0  0
    8.4292   -1.9167    0.0000 C   0  0  0  0  0  0  0  0  0  0  0  0
    6.3042   -5.6417    0.0000 N   0  0  0  0  0  0  0  0  0  0  0  0
    7.7167   -2.3292    0.0000 C   0  0  0  0  0  0  0  0  0  0  0  0
    6.2917   -3.1542    0.0000 C   0  0  0  0  0  0  0  0  0  0  0  0
    5.5917   -6.0542    0.0000 C   0  0  0  0  0  0  0  0  0  0  0  0
    8.4167   -4.4042    0.0000 C   0  0  0  0  0  0  0  0  0  0  0  0
    6.2917   -4.8125    0.0000 C   0  0  0  0  0  0  0  0  0  0  0  0
    5.5792   -1.9167    0.0000 O   0  0  0  0  0  0  0  0  0  0  0  0
    8.4292   -1.0917    0.0000 O   0  0  0  0  0  0  0  0  0  0  0  0
    4.8667   -4.8167    0.0000 C   0  0  0  0  0  0  0  0  0  0  0  0
    7.7042   -4.8042    0.0000 O   0  0  0  0  0  0  0  0  0  0  0  0
    2.7292   -6.8792    0.0000 N   0  0  0  0  0  0  0  0  0  0  0  0
    7.0042   -3.5667    0.0000 C   0  0  0  0  0  0  0  0  0  0  0  0
    5.5792   -3.5667    0.0000 C   0  0  0  0  0  0  0  0  0  0  0  0
    7.0042   -4.4000    0.0000 C   0  0  0  0  0  0  0  0  0  0  0  0
    5.5792   -4.4000    0.0000 C   0  0  0  0  0  0  0  0  0  0  0  0
    1.2917   -4.4000    0.0000 N   0  0  0  0  0  0  0  0  0  0  0  0
    7.7167   -3.1625    0.0000 C   0  0  0  0  0  0  0  0  0  0  0  0
    8.4292   -3.5792    0.0000 C   0  0  0  0  0  0  0  0  0  0  0  0
    9.1542   -2.3292    0.0000 O   0  0  0  0  0  0  0  0  0  0  0  0
    9.1292   -4.8250    0.0000 O   0  0  0  0  0  0  0  0  0  0  0  0
    7.0167   -6.0500    0.0000 C   0  0  0  0  0  0  0  0  0  0  0  0
  2  6  2  0
  3  5  1  0
  4  2  1  0
  5  1  2  0
  6  1  1  0
  7  3  2  0
  8 15  1  0
  9  4  2  0
 10  8  1  0
 11  7  1  0
 12 14  1  0
 13 16  1  0
 14 10  1  0
 15 25  2  0
 16 11  1  0
 17 30  1  0
 18 13  1  0
 19  8  2  0
 20 12  2  0
 21  9  1  0
 22 17  2  0
 23  5  1  0
 24 26  2  0
 25 27  1  0
 26 18  1  0
 27 18  2  0
 28  6  1  0
 29 14  1  0
 30 29  1  0
 31 12  1  0
 32 17  1  0
 33 13  1  0
  4  3  1  0
 21 11  2  0
 15 24  1  0
M  END
>  <ID>  (15) 


>  <MOLENAME>  (15) 
METHOTREXATE(+/-)

>  <therap>  (15) 
antineoplastic, antirheumatic, folic acid antagonist

>  <ref>  (15) 
Nat. Rev. Rheumatol. (2010), 6(3), 175-178; J. Med. Pharm. Chem. (1959), 1, 245-62; Proc. Soc. Exp. Biol. Med. (1958), 97, 429-31

>  <cas#>  (15) 
60388-53-6

>  <source>  (15) 
synthetic; amethopterin, CL-14377

>  <status>  (15) 
USP, INN, BAN, JAN

>  <tradename>  (15) 
RHEUMATREX

>  <SMILES>  (15) 
CN(Cc1cnc2nc(N)nc(N)c2n1)c1ccc(C(=O)NC(CCC(=O)O)C(=O)O)cc1

>  <standardized_failed>  (15) 
False

$$$$

     RDKit          2D

 16 15  0  0  0  0  0  0  0  0999 V2000
    5.5625   -3.8417    0.0000 C   0  0  0  0  0  0  0  0  0  0  0  0
    6.3125   -3.8417    0.0000 C   0  0  0  0  0  0  0  0  0  0  0  0
    5.1875   -4.4792    0.0000 C   0  0  0  0  0  0  0  0  0  0  0  0
    5.1875   -3.1917    0.0000 C   0  0  0  0  0  0  0  0  0  0  0  0
    4.4375   -4.4792    0.0000 C   0  0  0  0  0  0  0  0  0  0  0  0
    6.6875   -3.1917    0.0000 C   0  0  0  0  0  0  0  0  0  0  0  0
    4.4417   -3.1917    0.0000 C   0  0  0  0  0  0  0  0  0  0  0  0
    6.6875   -4.4792    0.0000 O   0  0  0  0  0  0  0  0  0  0  0  0
    6.3125   -2.5417    0.0000 N   0  0  0  0  0  0  0  0  0  0  0  0
    4.0625   -3.8417    0.0000 C   0  0  0  0  0  0  0  0  0  0  0  0
    7.6042   -1.9917    0.0000 Cl  0  0  0  0  0  0  0  0  0  0  0  0
    5.5667   -5.1417    0.0000 O   0  0  0  0  0  0  0  0  0  0  0  0
    4.0625   -2.5292    0.0000 O   0  0  0  0  0  0  0  0  0  0  0  0
    7.4375   -3.1917    0.0000 C   0  0  0  0  0  0  0  0  0  0  0  0
    6.3167   -5.1417    0.0000 C   0  0  0  0  0  0  0  0  0  0  0  0
    4.4375   -1.8792    0.0000 C   0  0  0  0  0  0  0  0  0  0  0  0
  2  1  1  0
  3  1  2  0
  4  1  1  0
  5  3  1  0
  6  2  1  0
  7  4  2  0
  8  2  1  0
  9  6  1  0
 10  7  1  0
 12  3  1  0
 13  7  1  0
 14  6  1  0
 15 12  1  0
 16 13  1  0
  5 10  2  0
M  END
>  <ID>  (16) 


>  <MOLENAME>  (16) 
METHOXAMINE HYDROCHLORIDE

>  <therap>  (16) 
alpha1 adrenoreceptor agonist, vasoconstrictor

>  <ref>  (16) 
Anesthesiology 28:735 (1967); N Eng J Med 326:1661 (1992)

>  <cas#>  (16) 
61-16-5, 390-28-3 [methoxamine]

>  <source>  (16) 
synthetic

>  <status>  (16) 
USP-XXII, INN, BAN, JAN

>  <tradename>  (16) 
VASOXYL

>  <SMILES>  (16) 
COc1cc(C(O)C(C)N)c(OC)cc1

>  <standardized_failed>  (16) 
False

$$$$

     RDKit          2D

 22 25  0  0  0  0  0  0  0  0999 V2000
    3.0542   -3.3000    0.0000 C   0  0  0  0  0  0  0  0  0  0  0  0
    2.6917   -2.5167    0.0000 C   0  0  0  0  0  0  0  0  0  0  0  0
    2.6667   -4.0542    0.0000 C   0  0  0  0  0  0  0  0  0  0  0  0
    1.8667   -4.1917    0.0000 N   0  0  0  0  0  0  0  0  0  0  0  0
    1.8875   -2.3667    0.0000 N   0  0  0  0  0  0  0  0  0  0  0  0
    3.3167   -1.9292    0.0000 S   0  0  0  0  0  0  0  0  0  0  0  0
    3.1625   -4.7250    0.0000 N   0  0  0  0  0  0  0  0  0  0  0  0
    3.9042   -3.1917    0.0000 C   0  0  0  0  0  0  0  0  0  0  0  0
    4.0667   -2.3417    0.0000 C   0  0  0  0  0  0  0  0  0  0  0  0
    1.3667   -3.7042    0.0000 C   0  0  0  0  0  0  0  0  0  0  0  0
    1.3667   -2.8667    0.0000 C   0  0  0  0  0  0  0  0  0  0  0  0
    4.1292   -6.0542    0.0000 N   0  0  0  0  0  0  0  0  0  0  0  0
    2.8292   -5.4792    0.0000 C   0  0  0  0  0  0  0  0  0  0  0  0
    3.9792   -4.6292    0.0000 C   0  0  0  0  0  0  0  0  0  0  0  0
    4.4667   -5.2917    0.0000 C   0  0  0  0  0  0  0  0  0  0  0  0
    3.3125   -6.1417    0.0000 C   0  0  0  0  0  0  0  0  0  0  0  0
    4.6167   -6.7167    0.0000 C   0  0  0  0  0  0  0  0  0  0  0  0
    4.8167   -1.9917    0.0000 C   0  0  0  0  0  0  0  0  0  0  0  0
    0.6500   -4.1125    0.0000 C   0  0  0  0  0  0  0  0  0  0  0  0
    0.6500   -2.4542    0.0000 C   0  0  0  0  0  0  0  0  0  0  0  0
   -0.0625   -2.8750    0.0000 C   0  0  0  0  0  0  0  0  0  0  0  0
   -0.0625   -3.7000    0.0000 C   0  0  0  0  0  0  0  0  0  0  0  0
  2  1  2  0
  3  1  1  0
  4  3  2  0
  5  2  1  0
  6  2  1  0
  7  3  1  0
  8  1  1  0
  9  8  2  0
 10  4  1  0
 11  5  1  0
 12 15  1  0
 13  7  1  0
 14  7  1  0
 15 14  1  0
 16 13  1  0
 17 12  1  0
 18  9  1  0
 19 10  2  0
 20 11  2  0
 21 20  1  0
 22 19  1  0
  6  9  1  0
 10 11  1  0
 12 16  1  0
 22 21  2  0
M  END
>  <ID>  (17) 


>  <MOLENAME>  (17) 
OLANZAPINE

>  <therap>  (17) 
antipsychotic

>  <ref>  (17) 
Int Clin Psychopharmacol 10:239 (1995); Am JK Psychiatry 156:702 (1999); Expert Opin Pharmacother 1:305 (2000)

>  <cas#>  (17) 
132539-06-1

>  <source>  (17) 
synthetic; LY-170053

>  <status>  (17) 
USAN, INN, BAN

>  <tradename>  (17) 
ZYPREXA

>  <SMILES>  (17) 
Cc1cc2c(Nc3ccccc3N=C2N2CCN(C)CC2)s1

>  <standardized_failed>  (17) 
False

$$$$

     RDKit          2D

  9  8  0  0  0  0  0  0  0  0999 V2000
    3.3375   -1.5167    0.0000 N   0  0  0  0  0  0  0  0  0  0  0  0
    1.2000   -1.1125    0.0000 C   0  0  0  0  0  0  0  0  0  0  0  0
    2.6250   -1.1042    0.0000 C   0  0  0  0  0  0  0  0  0  0  0  0
    1.9125   -1.5167    0.0000 C   0  0  0  0  0  0  0  0  0  0  0  0
    0.4875   -1.5250    0.0000 C   0  0  0  0  0  0  0  0  0  0  0  0
   -0.2250   -1.1167    0.0000 C   0  0  0  0  0  0  0  0  0  0  0  0
    2.6208   -0.2792    0.0000 C   0  0  0  0  0  0  0  0  0  0  0  0
   -0.2292   -0.2917    0.0000 C   0  0  0  0  0  0  0  0  0  0  0  0
   -0.9375   -1.5292    0.0000 C   0  0  0  0  0  0  0  0  0  0  0  0
  2  4  1  0
  3  1  1  0
  4  3  1  0
  5  2  1  0
  6  5  1  0
  7  3  1  0
  8  6  1  0
  9  6  1  0
M  END
>  <ID>  (18) 


>  <MOLENAME>  (18) 
OCTODRINE

>  <therap>  (18) 
vasoconstrictor, anesthetic (local)

>  <ref>  (18) 
J. Pharmacol. Exp. Ther. (1950), 98, 300-4; J. Am. Chem. Soc. (1944), 66, 1516-20; Chem. Res. Toxicol. (2001), 14(4), 409-415

>  <cas#>  (18) 
543-82-8

>  <source>  (18) 
synthetic; SK&F-51

>  <status>  (18) 
USAN, INN

>  <tradename>  (18) 
nan

>  <SMILES>  (18) 
CC(C)CCCC(C)N

>  <standardized_failed>  (18) 
False

$$$$

     RDKit          2D

 32 34  0  0  0  0  0  0  0  0999 V2000
    3.2583   -3.4875    0.0000 C   0  0  0  0  0  0  0  0  0  0  0  0
    3.2625   -4.3167    0.0000 C   0  0  0  0  0  0  0  0  0  0  0  0
    2.5500   -4.7333    0.0000 N   0  0  0  0  0  0  0  0  0  0  0  0
    2.5417   -3.0792    0.0000 C   0  0  0  0  0  0  0  0  0  0  0  0
    3.9667   -3.0750    0.0000 C   0  0  0  0  0  0  0  0  0  0  0  0
    3.9833   -4.7208    0.0000 C   0  0  0  0  0  0  0  0  0  0  0  0
    1.8333   -4.3208    0.0000 C   0  0  0  0  0  0  0  0  0  0  0  0
    1.8333   -3.4958    0.0000 C   0  0  0  0  0  0  0  0  0  0  0  0
    4.3958   -5.4375    0.0000 C   0  0  0  0  0  0  0  0  0  0  0  0
    4.8083   -4.7208    0.0000 C   0  0  0  0  0  0  0  0  0  0  0  0
    8.2417   -3.0625    0.0000 C   0  0  0  0  0  0  0  0  0  0  0  0
    7.5292   -3.4750    0.0000 C   0  0  0  0  0  0  0  0  0  0  0  0
    2.5375   -2.2583    0.0000 C   0  0  0  0  0  0  0  0  0  0  0  0
    4.6792   -3.4792    0.0000 C   0  0  0  0  0  0  0  0  0  0  0  0
    8.9542   -3.4667    0.0000 O   0  0  0  0  0  0  0  0  0  0  0  0
    8.2417   -2.2375    0.0000 O   0  0  0  0  0  0  0  0  0  0  0  0
    6.8167   -3.0667    0.0000 C   0  0  0  0  0  0  0  0  0  0  0  0
    6.1042   -3.4792    0.0000 C   0  0  0  0  0  0  0  0  0  0  0  0
    1.8250   -1.8542    0.0000 C   0  0  0  0  0  0  0  0  0  0  0  0
    3.2500   -1.8458    0.0000 C   0  0  0  0  0  0  0  0  0  0  0  0
    2.5292   -0.6125    0.0000 C   0  0  0  0  0  0  0  0  0  0  0  0
    5.3917   -3.0667    0.0000 C   0  0  0  0  0  0  0  0  0  0  0  0
    1.8167   -1.0333    0.0000 C   0  0  0  0  0  0  0  0  0  0  0  0
    3.2458   -1.0208    0.0000 C   0  0  0  0  0  0  0  0  0  0  0  0
    2.5250    0.2125    0.0000 F   0  0  0  0  0  0  0  0  0  0  0  0
   10.5208   -3.1792    0.0000 Ca  0  0  0  0  0 15  0  0  0  0  0  0
    6.8167   -2.2417    0.0000 O   0  0  0  0  0  0  0  0  0  0  0  0
    5.3917   -2.2417    0.0000 O   0  0  0  0  0  0  0  0  0  0  0  0
    1.1167   -3.0833    0.0000 C   0  0  0  0  0  0  0  0  0  0  0  0
    1.1167   -4.7375    0.0000 C   0  0  0  0  0  0  0  0  0  0  0  0
    0.4042   -3.5000    0.0000 C   0  0  0  0  0  0  0  0  0  0  0  0
    0.4042   -4.3250    0.0000 C   0  0  0  0  0  0  0  0  0  0  0  0
  2  1  2  0
  3  2  1  0
  4  1  1  0
  5  1  1  0
  6  2  1  0
  7  8  1  0
  8  4  2  0
  9  6  1  0
 10  6  1  0
 11 12  1  0
 12 17  1  0
 13  4  1  0
 14  5  2  0
 15 11  1  0
 16 11  2  0
 17 18  1  0
 18 22  1  0
 19 13  2  0
 20 13  1  0
 21 24  1  0
 22 14  1  0
 23 19  1  0
 24 20  2  0
 25 21  1  0
 17 27  1  1
 22 28  1  1
 29  8  1  0
 30  7  1  0
 31 29  2  0
 32 30  2  0
  3  7  2  0
  9 10  1  0
 23 21  2  0
 32 31  1  0
M  CHG  2  15  -1  26   2
M  END
>  <ID>  (19) 


>  <MOLENAME>  (19) 
PITAVASTATIN CALCIUM 

>  <therap>  (19) 
HMGA reductase inhibitor

>  <ref>  (19) 
Arzneim Forsch 47:904 (1997); Cardiovasc Drug Rev 21:199 (2003); Int J Clin Pract 59:239 (2005)

>  <cas#>  (19) 
147511-69-1

>  <source>  (19) 
synthetic

>  <status>  (19) 
USAN, INN

>  <tradename>  (19) 
LIVALO

>  <SMILES>  (19) 
O=C(O)C[C@H](O)C[C@H](O)/C=C/c1c(C2CC2)nc2ccccc2c1-c1ccc(F)cc1

>  <standardized_failed>  (19) 
False

$$$$

     RDKit          2D

 27 30  0  0  0  0  0  0  0  0999 V2000
    5.5292   -7.6917    0.0000 C   0  0  0  0  0  0  0  0  0  0  0  0
    7.6750   -6.4500    0.0000 C   0  0  0  0  0  0  0  0  0  0  0  0
    5.5292   -8.5167    0.0000 C   0  0  0  0  0  0  0  0  0  0  0  0
    8.4542   -6.1917    0.0000 C   0  0  0  0  0  0  0  0  0  0  0  0
    6.2417   -7.2792    0.0000 C   0  0  0  0  0  0  0  0  0  0  0  0
    6.9542   -7.6917    0.0000 C   0  0  0  0  0  0  0  0  0  0  0  0
    7.6750   -7.2792    0.0000 C   0  0  0  0  0  0  0  0  0  0  0  0
    4.8167   -7.2792    0.0000 C   0  0  0  0  0  0  0  0  0  0  0  0
    6.9542   -6.0375    0.0000 C   0  0  0  0  0  0  0  0  0  0  0  0
    6.2417   -6.4500    0.0000 C   0  0  0  0  0  0  0  0  0  0  0  0
    6.9542   -8.5167    0.0000 C   0  0  0  0  0  0  0  0  0  0  0  0
    4.8167   -8.9292    0.0000 C   0  0  0  0  0  0  0  0  0  0  0  0
    6.2417   -8.9292    0.0000 C   0  0  0  0  0  0  0  0  0  0  0  0
    8.7917   -5.4417    0.0000 C   0  0  0  0  0  0  0  0  0  0  0  0
    8.9417   -6.8625    0.0000 C   0  0  0  0  0  0  0  0  0  0  0  0
    8.4542   -7.5292    0.0000 C   0  0  0  0  0  0  0  0  0  0  0  0
    4.1000   -7.6917    0.0000 C   0  0  0  0  0  0  0  0  0  0  0  0
    4.1000   -8.5167    0.0000 C   0  0  0  0  0  0  0  0  0  0  0  0
    9.6167   -5.3542    0.0000 O   0  0  0  0  0  0  0  0  0  0  0  0
    3.3792   -8.9417    0.0000 O   0  0  0  0  0  0  0  0  0  0  0  0
    9.3542   -6.2417    0.0000 O   0  0  0  0  0  0  0  0  0  0  0  0
    5.5292   -6.8625    0.0000 C   0  0  0  0  0  0  0  0  0  0  0  0
    7.6667   -5.6167    0.0000 C   0  0  0  0  0  0  0  0  0  0  0  0
    5.5167   -6.0250    0.0000 O   0  0  0  0  0  0  0  0  0  0  0  0
    8.3042   -4.7667    0.0000 C   0  0  0  0  0  0  0  0  0  0  0  0
    7.4875   -4.8542    0.0000 O   0  0  0  0  0  0  0  0  0  0  0  0
    6.2417   -9.7542    0.0000 C   0  0  0  0  0  0  0  0  0  0  0  0
  2  9  1  0
  3  1  1  0
  4  2  1  0
  5  1  1  0
  6  5  1  0
  7  6  1  0
  8  1  1  0
  9 10  1  0
 10  5  1  0
 11  6  1  0
 12  3  2  0
 13  3  1  0
  4 14  1  0
 15 16  1  0
 16  7  1  0
 17  8  2  0
 18 17  1  0
 19 14  2  0
 20 18  2  0
  4 21  1  6
  1 22  1  1
  2 23  1  1
 10 24  1  1
 25 14  1  0
 26 25  1  0
 13 27  1  6
 11 13  1  0
 12 18  1  0
  7  2  1  0
  4 15  1  0
M  END
>  <ID>  (20) 


>  <MOLENAME>  (20) 
METHYLPREDNISOLONE

>  <therap>  (20) 
glucocorticoid

>  <ref>  (20) 
JAMA, J. Am. Med. Assoc. (1960), 174, 835-41; J. Am. Chem. Soc. (1959), 81, 1235-9; Metab., Clin. Exp. (1958), 7, 405-15

>  <cas#>  (20) 
83-43-2

>  <source>  (20) 
semisynthetic; U-67590A

>  <status>  (20) 
USP, INN, BAN, JAN

>  <tradename>  (20) 
MEDROL

>  <SMILES>  (20) 
C[C@H]1CC2C3CC[C@](O)(C(=O)CO)[C@@]3(C)C[C@H](O)C2[C@@]2(C)C=CC(=O)C=C12

>  <standardized_failed>  (20) 
False

$$$$

     RDKit          2D

 12 12  0  0  0  0  0  0  0  0999 V2000
    5.9000   -8.3042    0.0000 C   0  0  0  0  0  0  0  0  0  0  0  0
    6.6125   -7.8917    0.0000 N   0  0  0  0  0  0  0  0  0  0  0  0
    5.1292   -7.9667    0.0000 N   0  0  0  0  0  0  0  0  0  0  0  0
    6.0750   -9.1125    0.0000 C   0  0  0  0  0  0  0  0  0  0  0  0
    6.8917   -9.1917    0.0000 N   0  0  0  0  0  0  0  0  0  0  0  0
    7.2292   -8.4500    0.0000 C   0  0  0  0  0  0  0  0  0  0  0  0
    5.0375   -7.1417    0.0000 O   0  0  0  0  0  0  0  0  0  0  0  0
    4.4542   -8.4625    0.0000 O   0  0  0  0  0  0  0  0  0  0  0  0
    6.6917   -7.0667    0.0000 C   0  0  0  0  0  0  0  0  0  0  0  0
    8.0417   -8.2917    0.0000 C   0  0  0  0  0  0  0  0  0  0  0  0
    7.5292   -5.9000    0.0000 O   0  0  0  0  0  0  0  0  0  0  0  0
    7.4500   -6.7250    0.0000 C   0  0  0  0  0  0  0  0  0  0  0  0
  2  1  1  0
  3  1  1  0
  4  1  2  0
  5  4  1  0
  6  2  1  0
  7  3  1  0
  8  3  2  0
  9  2  1  0
 10  6  1  0
 11 12  1  0
 12  9  1  0
  6  5  2  0
M  CHG  2   3   1   7  -1
M  END
>  <ID>  (21) 


>  <MOLENAME>  (21) 
METRONIDAZOLE

>  <therap>  (21) 
antiprotozoal

>  <ref>  (21) 
Pharmazie (2011), 66(6), 393-398; Clin. Infect. Dis. (2009), 50(Suppl. 1), S16-S23; Am. J. Obstet. Gynecol. (1964), 88, 184-9

>  <cas#>  (21) 
443-48-1, 69198-10-3 [metronidazole hydrochloride]

>  <source>  (21) 
synthetic; Bay-5360, RP-8823

>  <status>  (21) 
USP, INN, BAN, JAN

>  <tradename>  (21) 
FLAGYL

>  <SMILES>  (21) 
Cc1ncc([N+](=O)[O-])n1CCO

>  <standardized_failed>  (21) 
False

$$$$

     RDKit          2D

 20 21  0  0  0  0  0  0  0  0999 V2000
    9.1292   -5.6417    0.0000 C   0  0  0  0  0  0  0  0  0  0  0  0
    8.3792   -5.3042    0.0000 O   0  0  0  0  0  0  0  0  0  0  0  0
    9.0417   -6.4542    0.0000 N   0  0  0  0  0  0  0  0  0  0  0  0
    7.8292   -5.9167    0.0000 C   0  0  0  0  0  0  0  0  0  0  0  0
    6.1875   -5.9042    0.0000 N   0  0  0  0  0  0  0  0  0  0  0  0
    9.8417   -5.2292    0.0000 O   0  0  0  0  0  0  0  0  0  0  0  0
    7.4167   -5.1917    0.0000 C   0  0  0  0  0  0  0  0  0  0  0  0
    7.4125   -6.6292    0.0000 C   0  0  0  0  0  0  0  0  0  0  0  0
    8.2375   -6.6292    0.0000 C   0  0  0  0  0  0  0  0  0  0  0  0
    6.5917   -5.1917    0.0000 C   0  0  0  0  0  0  0  0  0  0  0  0
    6.5917   -6.6292    0.0000 C   0  0  0  0  0  0  0  0  0  0  0  0
    5.3625   -5.9042    0.0000 C   0  0  0  0  0  0  0  0  0  0  0  0
    4.9500   -5.1917    0.0000 C   0  0  0  0  0  0  0  0  0  0  0  0
    5.0167   -6.7750    0.0000 Cl  0  0  0  0  0  0  0  0  0  0  0  0
    4.1250   -5.1917    0.0000 C   0  0  0  0  0  0  0  0  0  0  0  0
    3.7125   -5.9042    0.0000 C   0  0  0  0  0  0  0  0  0  0  0  0
    3.7125   -4.4792    0.0000 C   0  0  0  0  0  0  0  0  0  0  0  0
    2.8875   -5.9042    0.0000 C   0  0  0  0  0  0  0  0  0  0  0  0
    2.8875   -4.4792    0.0000 C   0  0  0  0  0  0  0  0  0  0  0  0
    2.4750   -5.1917    0.0000 C   0  0  0  0  0  0  0  0  0  0  0  0
  2  1  1  0
  3  1  1  0
  4  2  1  0
  5 11  1  0
  6  1  2  0
  7  4  1  0
  8  4  1  0
  9  3  1  0
 10  7  1  0
 11  8  1  0
 12  5  1  0
 13 12  1  0
 15 13  1  0
 16 15  2  0
 17 15  1  0
 18 16  1  0
 19 17  2  0
 20 18  2  0
  4  9  1  0
 10  5  1  0
 19 20  1  0
M  END
>  <ID>  (22) 


>  <MOLENAME>  (22) 
FENSPIRIDE HYDROCHLORIDE

>  <therap>  (22) 
antiinflammatory, bronchodilator

>  <ref>  (22) 
Arzneim Forsch 19:1263 (1969); 22:1947 (1972)

>  <cas#>  (22) 
5053-08-7, 5053-06-5 [fenspiride]

>  <source>  (22) 
synthetic; NAT-333, NDR-5998A

>  <status>  (22) 
USAN, INN

>  <tradename>  (22) 
VIARESPAN

>  <SMILES>  (22) 
O=C1NCC2(CCN(CCc3ccccc3)CC2)O1

>  <standardized_failed>  (22) 
False

$$$$

     RDKit          2D

 15 16  0  0  0  0  0  0  0  0999 V2000
    4.6292   -2.4667    0.0000 N   0  0  0  0  0  0  0  0  0  0  0  0
    4.6292   -1.7125    0.0000 C   0  0  0  0  0  0  0  0  0  0  0  0
    3.9792   -1.3292    0.0000 N   0  0  0  0  0  0  0  0  0  0  0  0
    3.3292   -1.7125    0.0000 C   0  0  0  0  0  0  0  0  0  0  0  0
    3.9792   -2.8417    0.0000 C   0  0  0  0  0  0  0  0  0  0  0  0
    3.3292   -2.4667    0.0000 C   0  0  0  0  0  0  0  0  0  0  0  0
    2.2667   -1.1917    0.0000 N   0  0  0  0  0  0  0  0  0  0  0  0
    5.5167   -3.0542    0.0000 O   0  0  0  0  0  0  0  0  0  0  0  0
    5.2792   -1.3375    0.0000 N   0  0  0  0  0  0  0  0  0  0  0  0
    3.9792   -3.5917    0.0000 N   0  0  0  0  0  0  0  0  0  0  0  0
    1.8917   -0.5500    0.0000 C   0  0  0  0  0  0  0  0  0  0  0  0
    1.8917   -1.8417    0.0000 C   0  0  0  0  0  0  0  0  0  0  0  0
    1.1417   -0.5500    0.0000 C   0  0  0  0  0  0  0  0  0  0  0  0
    1.1417   -1.8417    0.0000 C   0  0  0  0  0  0  0  0  0  0  0  0
    0.7667   -1.1917    0.0000 C   0  0  0  0  0  0  0  0  0  0  0  0
  2  1  2  0
  3  2  1  0
  4  6  1  0
  5  1  1  0
  6  5  2  0
  7  4  1  0
  8  1  1  0
  9  2  1  0
 10  5  1  0
 11  7  1  0
 12  7  1  0
 13 11  1  0
 14 12  1  0
 15 14  1  0
  4  3  2  0
 15 13  1  0
M  CHG  2   1   1   8  -1
M  END
>  <ID>  (23) 


>  <MOLENAME>  (23) 
MINOXIDIL

>  <therap>  (23) 
antihypertensive, antialopecia agent

>  <ref>  (23) 
Drugs 22:257 (1981); Int J Dermatol 24:82 (1985)

>  <cas#>  (23) 
38304-91-5

>  <source>  (23) 
synthetic; U-10858

>  <status>  (23) 
USP, INN, BAN

>  <tradename>  (23) 
ROGAINE

>  <SMILES>  (23) 
Nc1cc(N2CCCCC2)nc(N)[n+]1[O-]

>  <standardized_failed>  (23) 
False

$$$$

     RDKit          2D

 21 20  0  0  0  0  0  0  0  0999 V2000
    6.7792   -6.1792    0.0000 C   0  0  0  0  0  0  0  0  0  0  0  0
    7.1792   -6.9000    0.0000 O   0  0  0  0  0  0  0  0  0  0  0  0
    7.1917   -5.4667    0.0000 N   0  0  0  0  0  0  0  0  0  0  0  0
    5.5417   -5.4625    0.0000 O   0  0  0  0  0  0  0  0  0  0  0  0
    5.9542   -6.1750    0.0000 C   0  0  0  0  0  0  0  0  0  0  0  0
    4.7167   -5.4542    0.0000 C   0  0  0  0  0  0  0  0  0  0  0  0
    9.2542   -4.7667    0.0000 N   0  0  0  0  0  0  0  0  0  0  0  0
    3.0667   -5.4500    0.0000 C   0  0  0  0  0  0  0  0  0  0  0  0
   11.0667   -5.4000    0.0000 Cl  0  0  0  0  0  0  0  0  0  0  0  0
    4.3042   -6.1667    0.0000 C   0  0  0  0  0  0  0  0  0  0  0  0
    4.3167   -4.7375    0.0000 C   0  0  0  0  0  0  0  0  0  0  0  0
    3.4792   -6.1625    0.0000 C   0  0  0  0  0  0  0  0  0  0  0  0
    3.4917   -4.7375    0.0000 C   0  0  0  0  0  0  0  0  0  0  0  0
    8.0167   -5.4750    0.0000 C   0  0  0  0  0  0  0  0  0  0  0  0
    2.2417   -5.4500    0.0000 O   0  0  0  0  0  0  0  0  0  0  0  0
    8.4292   -4.7625    0.0000 C   0  0  0  0  0  0  0  0  0  0  0  0
    9.6792   -4.0542    0.0000 C   0  0  0  0  0  0  0  0  0  0  0  0
    9.6667   -5.4875    0.0000 C   0  0  0  0  0  0  0  0  0  0  0  0
    1.8417   -4.7375    0.0000 C   0  0  0  0  0  0  0  0  0  0  0  0
   10.5042   -4.0625    0.0000 C   0  0  0  0  0  0  0  0  0  0  0  0
    9.2542   -6.2000    0.0000 C   0  0  0  0  0  0  0  0  0  0  0  0
  2  1  2  0
  3  1  1  0
  4  5  1  0
  5  1  1  0
  6  4  1  0
  7 16  1  0
  8 12  2  0
 10  6  2  0
 11  6  1  0
 12 10  1  0
 13 11  2  0
 14  3  1  0
 15  8  1  0
 16 14  1  0
 17  7  1  0
 18  7  1  0
 19 15  1  0
 20 17  1  0
 21 18  1  0
 13  8  1  0
M  END
>  <ID>  (24) 


>  <MOLENAME>  (24) 
MEFEXAMIDE HYDROCHLORIDE

>  <therap>  (24) 
CNS stimulant

>  <ref>  (24) 
J. Pharm. Pharmacol. (1982), 34(6), 391-4; Acta Univ. Palacki. Olomuc., Fac. Med. (1973), 67, 155-92; Antidepressant Drugs, Proc. Int. Symp., 1st (1967), 208-16

>  <cas#>  (24) 
1227-61-8

>  <source>  (24) 
synthetic

>  <status>  (24) 
USAN, INN

>  <tradename>  (24) 
nan

>  <SMILES>  (24) 
CCN(CC)CCNC(=O)COc1ccc(OC)cc1

>  <standardized_failed>  (24) 
False

$$$$

     RDKit          2D

 25 29  0  0  0  0  0  0  0  0999 V2000
    4.1542   -4.1417    0.0000 C   0  0  0  0  0  0  0  0  0  0  0  0
    4.8917   -4.5167    0.0000 O   0  0  0  0  0  0  0  0  0  0  0  0
    3.4417   -3.7250    0.0000 C   0  0  0  0  0  0  0  0  0  0  0  0
    4.8792   -3.7250    0.0000 C   0  0  0  0  0  0  0  0  0  0  0  0
    3.5750   -4.7250    0.0000 C   0  0  0  0  0  0  0  0  0  0  0  0
    4.7625   -5.3375    0.0000 C   0  0  0  0  0  0  0  0  0  0  0  0
    3.4500   -2.9000    0.0000 C   0  0  0  0  0  0  0  0  0  0  0  0
    4.8792   -2.9000    0.0000 C   0  0  0  0  0  0  0  0  0  0  0  0
    4.1625   -2.4792    0.0000 O   0  0  0  0  0  0  0  0  0  0  0  0
    3.9417   -5.4667    0.0000 C   0  0  0  0  0  0  0  0  0  0  0  0
    2.7292   -2.4875    0.0000 C   0  0  0  0  0  0  0  0  0  0  0  0
    5.5917   -2.4875    0.0000 C   0  0  0  0  0  0  0  0  0  0  0  0
    5.5917   -4.1292    0.0000 C   0  0  0  0  0  0  0  0  0  0  0  0
    2.7292   -4.1417    0.0000 C   0  0  0  0  0  0  0  0  0  0  0  0
    5.3417   -5.9250    0.0000 O   0  0  0  0  0  0  0  0  0  0  0  0
    2.0167   -2.9000    0.0000 C   0  0  0  0  0  0  0  0  0  0  0  0
    6.3042   -2.8917    0.0000 C   0  0  0  0  0  0  0  0  0  0  0  0
    6.3042   -3.7250    0.0000 C   0  0  0  0  0  0  0  0  0  0  0  0
    2.0167   -3.7292    0.0000 C   0  0  0  0  0  0  0  0  0  0  0  0
    2.7500   -4.6750    0.0000 C   0  0  0  0  0  0  0  0  0  0  0  0
    1.3042   -2.4917    0.0000 O   0  0  0  0  0  0  0  0  0  0  0  0
    7.0167   -2.4792    0.0000 O   0  0  0  0  0  0  0  0  0  0  0  0
    3.4917   -6.1542    0.0000 C   0  0  0  0  0  0  0  0  0  0  0  0
    2.2917   -5.3667    0.0000 C   0  0  0  0  0  0  0  0  0  0  0  0
    2.6667   -6.1042    0.0000 C   0  0  0  0  0  0  0  0  0  0  0  0
  2  1  1  0
  3  1  1  0
  4  1  1  0
  5  1  1  0
  6  2  1  0
  7  3  2  0
  8  4  2  0
  9  8  1  0
 10  5  2  0
 11  7  1  0
 12  8  1  0
 13  4  1  0
 14  3  1  0
 15  6  2  0
 16 19  1  0
 17 18  1  0
 18 13  2  0
 19 14  2  0
 20  5  1  0
 21 16  1  0
 22 17  1  0
 23 10  1  0
 24 20  2  0
 25 24  1  0
 10  6  1  0
  7  9  1  0
 25 23  2  0
 17 12  2  0
 11 16  2  0
M  END
>  <ID>  (25) 


>  <MOLENAME>  (25) 
FLUORESCEIN

>  <therap>  (25) 
corneal trama indicator

>  <ref>  (25) 
Am. J. Ophthalmol. (1998), 126(4), 560-4; Ann. Surg. (1949), 130(4), 637-42; J. Neurosurg. (1948), 5(4), 392-8

>  <cas#>  (25) 
2321-07-5

>  <source>  (25) 
synthetic

>  <status>  (25) 
USP, BAN, JAN

>  <tradename>  (25) 
FUNDUSCEIN

>  <SMILES>  (25) 
O=C1OC2(c3c(cc(O)cc3)Oc3c2ccc(O)c3)c2c1cccc2

>  <standardized_failed>  (25) 
False

$$$$

     RDKit          2D

 14 13  0  0  0  0  0  0  0  0999 V2000
    5.7667   -2.2750    0.0000 C   0  0  0  0  0  0  0  0  0  0  0  0
    4.3417   -2.2750    0.0000 C   0  0  0  0  0  0  0  0  0  0  0  0
    5.0542   -1.8625    0.0000 C   0  0  0  0  0  0  0  0  0  0  0  0
    5.7667   -3.1000    0.0000 O   0  0  0  0  0  0  0  0  0  0  0  0
    6.4792   -1.8625    0.0000 N   0  0  0  0  0  0  0  0  0  0  0  0
    5.0542   -1.0375    0.0000 O   0  0  0  0  0  0  0  0  0  0  0  0
    3.6292   -1.8625    0.0000 C   0  0  0  0  0  0  0  0  0  0  0  0
    7.9042   -1.8625    0.0000 C   0  0  0  0  0  0  0  0  0  0  0  0
    3.9167   -2.9875    0.0000 C   0  0  0  0  0  0  0  0  0  0  0  0
    4.7417   -2.9875    0.0000 C   0  0  0  0  0  0  0  0  0  0  0  0
    2.9167   -2.2750    0.0000 O   0  0  0  0  0  0  0  0  0  0  0  0
    9.3292   -1.8625    0.0000 O   0  0  0  0  0  0  0  0  0  0  0  0
    7.1917   -2.2750    0.0000 C   0  0  0  0  0  0  0  0  0  0  0  0
    8.6167   -2.2750    0.0000 C   0  0  0  0  0  0  0  0  0  0  0  0
  2  3  1  0
  3  1  1  0
  4  1  2  0
  5  1  1  0
  3  6  1  1
  7  2  1  0
  8 13  1  0
  9  2  1  0
 10  2  1  0
 11  7  1  0
 12 14  1  0
 13  5  1  0
 14  8  1  0
M  END
>  <ID>  (26) 


>  <MOLENAME>  (26) 
DEXPANTHENOL

>  <therap>  (26) 
cholinergic

>  <ref>  (26) 
Antimicrob. Agents Chemother. (2005), 49(2), 632-637; Free Radical Biol. Med. (1995), 19(6), 767-72; Int. J. Vitam. Nutr. Res., Suppl. (1983), 24, 53-67

>  <cas#>  (26) 
81-13-0

>  <source>  (26) 
semisynthetic

>  <status>  (26) 
USP, INN, BAN

>  <tradename>  (26) 
ILOPAN

>  <SMILES>  (26) 
CC(C)(CO)[C@@H](O)C(=O)NCCCO

>  <standardized_failed>  (26) 
False

$$$$

     RDKit          2D

 27 27  0  0  0  0  0  0  0  0999 V2000
    4.1292   -1.7292    0.0000 C   0  0  0  0  0  0  0  0  0  0  0  0
    4.8417   -1.3250    0.0000 C   0  0  0  0  0  0  0  0  0  0  0  0
    7.6917   -2.1542    0.0000 C   0  0  0  0  0  0  0  0  0  0  0  0
    6.9792   -1.7417    0.0000 C   0  0  0  0  0  0  0  0  0  0  0  0
    4.8417   -0.5000    0.0000 O   0  0  0  0  0  0  0  0  0  0  0  0
    4.1250   -2.5542    0.0000 C   0  0  0  0  0  0  0  0  0  0  0  0
    3.4125   -1.3167    0.0000 C   0  0  0  0  0  0  0  0  0  0  0  0
    3.4125   -2.1417    0.0000 O   0  0  0  0  0  0  0  0  0  0  0  0
    5.5542   -1.7375    0.0000 O   0  0  0  0  0  0  0  0  0  0  0  0
    8.4000   -3.3917    0.0000 N   0  0  0  0  0  0  0  0  0  0  0  0
    8.4042   -2.5667    0.0000 C   0  0  0  0  0  0  0  0  0  0  0  0
    9.5750   -1.9917    0.0000 Cl  0  0  0  0  0  0  0  0  0  0  0  0
    6.2667   -1.3292    0.0000 C   0  0  0  0  0  0  0  0  0  0  0  0
    3.4042   -2.9625    0.0000 C   0  0  0  0  0  0  0  0  0  0  0  0
    4.8292   -2.9667    0.0000 C   0  0  0  0  0  0  0  0  0  0  0  0
    7.6875   -3.8000    0.0000 C   0  0  0  0  0  0  0  0  0  0  0  0
    9.1167   -3.8042    0.0000 C   0  0  0  0  0  0  0  0  0  0  0  0
    2.7000   -1.7292    0.0000 C   0  0  0  0  0  0  0  0  0  0  0  0
    3.4125   -0.4917    0.0000 C   0  0  0  0  0  0  0  0  0  0  0  0
    9.8292   -3.3917    0.0000 C   0  0  0  0  0  0  0  0  0  0  0  0
    6.9667   -3.3875    0.0000 C   0  0  0  0  0  0  0  0  0  0  0  0
    4.8292   -3.7917    0.0000 C   0  0  0  0  0  0  0  0  0  0  0  0
    3.4000   -3.7875    0.0000 C   0  0  0  0  0  0  0  0  0  0  0  0
    1.9917   -1.3167    0.0000 C   0  0  0  0  0  0  0  0  0  0  0  0
    2.7000   -0.0792    0.0000 C   0  0  0  0  0  0  0  0  0  0  0  0
    1.9917   -0.4917    0.0000 C   0  0  0  0  0  0  0  0  0  0  0  0
    4.1125   -4.2042    0.0000 C   0  0  0  0  0  0  0  0  0  0  0  0
  2  1  1  0
  3  4  3  0
  4 13  1  0
  5  2  2  0
  6  1  1  0
  7  1  1  0
  8  1  1  0
  9  2  1  0
 10 11  1  0
 11  3  1  0
 13  9  1  0
 14  6  2  0
 15  6  1  0
 16 10  1  0
 17 10  1  0
 18  7  1  0
 19  7  1  0
 20 17  1  0
 21 16  1  0
 22 15  2  0
 23 14  1  0
 24 18  1  0
 25 19  1  0
 26 24  1  0
 27 23  2  0
 25 26  1  0
 22 27  1  0
M  END
>  <ID>  (27) 


>  <MOLENAME>  (27) 
OXYBUTYNIN CHLORIDE

>  <therap>  (27) 
anticholinergic

>  <ref>  (27) 
Toxicol Appl Pharmacol 18:185 (1971); Drugs Aging 6:243 (1995)

>  <cas#>  (27) 
1508-65-2

>  <source>  (27) 
synthetic; MJ-4309-1, 5058

>  <status>  (27) 
USP, JAN

>  <tradename>  (27) 
DITROPAN

>  <SMILES>  (27) 
CCN(CC)CC#CCOC(=O)C(O)(c1ccccc1)C1CCCCC1

>  <standardized_failed>  (27) 
False

$$$$

     RDKit          2D

 22 22  0  0  0  0  0  0  0  0999 V2000
    2.1000   -2.6833    0.0000 N   0  0  0  0  0  0  0  0  0  0  0  0
    3.5167   -2.6792    0.0000 C   0  0  0  0  0  0  0  0  0  0  0  0
    2.8083   -3.0875    0.0000 C   0  0  0  0  0  0  0  0  0  0  0  0
    2.1042   -1.8625    0.0000 C   0  0  0  0  0  0  0  0  0  0  0  0
    3.5208   -1.8667    0.0000 C   0  0  0  0  0  0  0  0  0  0  0  0
    4.2375   -3.0875    0.0000 C   0  0  0  0  0  0  0  0  0  0  0  0
    4.9417   -2.6667    0.0000 O   0  0  0  0  0  0  0  0  0  0  0  0
    7.7917   -2.6417    0.0000 N   0  0  0  0  0  0  0  0  0  0  0  0
    1.3875   -1.4500    0.0000 O   0  0  0  0  0  0  0  0  0  0  0  0
    8.5125   -3.0500    0.0000 C   0  0  0  0  0  0  0  0  0  0  0  0
    2.8125   -1.4542    0.0000 C   0  0  0  0  0  0  0  0  0  0  0  0
    6.3667   -2.6542    0.0000 C   0  0  0  0  0  0  0  0  0  0  0  0
    5.6625   -3.0750    0.0000 C   0  0  0  0  0  0  0  0  0  0  0  0
    7.0875   -3.0625    0.0000 C   0  0  0  0  0  0  0  0  0  0  0  0
    8.1792   -0.9917    0.0000 Cl  0  0  0  0  0  0  0  0  0  0  0  0
    6.3625   -1.8333    0.0000 O   0  0  0  0  0  0  0  0  0  0  0  0
    2.8083   -3.9167    0.0000 C   0  0  0  0  0  0  0  0  0  0  0  0
    3.5208   -4.3292    0.0000 C   0  0  0  0  0  0  0  0  0  0  0  0
    4.2375   -3.9167    0.0000 C   0  0  0  0  0  0  0  0  0  0  0  0
    8.5167   -3.8750    0.0000 C   0  0  0  0  0  0  0  0  0  0  0  0
    9.2250   -3.4625    0.0000 C   0  0  0  0  0  0  0  0  0  0  0  0
    9.2208   -2.6333    0.0000 C   0  0  0  0  0  0  0  0  0  0  0  0
  2  3  2  0
  3  1  1  0
  4  1  1  0
  5  2  1  0
  6  2  1  0
  7  6  1  0
  8 14  1  0
  9  4  2  0
 10  8  1  0
 11  4  1  0
 12 13  1  0
 13  7  1  0
 14 12  1  0
 16 12  1  0
 17  3  1  0
 18 17  2  0
 19 18  1  0
 20 10  1  0
 21 10  1  0
 22 10  1  0
 11  5  1  0
  6 19  2  0
M  END
>  <ID>  (28) 


>  <MOLENAME>  (28) 
CARTEOLOL HYDROCHLORIDE

>  <therap>  (28) 
beta-adrenergic blocker

>  <ref>  (28) 
Farmaco Ed Prat 34:202 (1979); Arzneim Forsch 33:277, 290 (1983); Drugs Aging 2:58 (1992) 

>  <cas#>  (28) 
51781-21-6

>  <source>  (28) 
synthetic; OPC-1085

>  <status>  (28) 
USP, INN, BAN, JAN

>  <tradename>  (28) 
CARTROL

>  <SMILES>  (28) 
CC(C)(C)NCC(O)COc1cccc2c1CCC(=O)N2

>  <standardized_failed>  (28) 
False

$$$$

     RDKit          2D

 22 21  0  0  0  0  0  0  0  0999 V2000
    4.4500   -1.7750    0.0000 C   0  0  0  0  0  0  0  0  0  0  0  0
    3.7333   -1.3625    0.0000 C   0  0  0  0  0  0  0  0  0  0  0  0
    5.1625   -1.3625    0.0000 C   0  0  0  0  0  0  0  0  0  0  0  0
    4.4500   -2.6042    0.0000 C   0  0  0  0  0  0  0  0  0  0  0  0
    3.0208   -1.7750    0.0000 C   0  0  0  0  0  0  0  0  0  0  0  0
    5.1583   -0.5375    0.0000 O   0  0  0  0  0  0  0  0  0  0  0  0
    3.0208   -2.6042    0.0000 C   0  0  0  0  0  0  0  0  0  0  0  0
    5.8750   -1.7667    0.0000 O   0  0  0  0  0  0  0  0  0  0  0  0
    3.7333   -3.0167    0.0000 C   0  0  0  0  0  0  0  0  0  0  0  0
    3.7292   -0.5375    0.0000 O   0  0  0  0  0  0  0  0  0  0  0  0
    8.0125   -1.3542    0.0000 N   0  0  0  0  0  0  0  0  0  0  0  0
    2.3042   -3.0125    0.0000 N   0  0  0  0  0  0  0  0  0  0  0  0
    8.4792   -2.8375    0.0000 Cl  0  0  0  0  0  0  0  0  0  0  0  0
    6.5875   -1.3542    0.0000 C   0  0  0  0  0  0  0  0  0  0  0  0
    7.3000   -1.7667    0.0000 C   0  0  0  0  0  0  0  0  0  0  0  0
    8.7250   -1.7625    0.0000 C   0  0  0  0  0  0  0  0  0  0  0  0
    8.0083   -0.5292    0.0000 C   0  0  0  0  0  0  0  0  0  0  0  0
    3.0167   -0.1292    0.0000 C   0  0  0  0  0  0  0  0  0  0  0  0
    3.0125    0.6958    0.0000 C   0  0  0  0  0  0  0  0  0  0  0  0
    9.4375   -1.3500    0.0000 C   0  0  0  0  0  0  0  0  0  0  0  0
    8.7208   -0.1125    0.0000 C   0  0  0  0  0  0  0  0  0  0  0  0
    2.2958    1.1083    0.0000 C   0  0  0  0  0  0  0  0  0  0  0  0
  2  1  2  0
  3  1  1  0
  4  1  1  0
  5  2  1  0
  6  3  2  0
  7  5  2  0
  8  3  1  0
  9  4  2  0
 10  2  1  0
 11 15  1  0
 12  7  1  0
 14  8  1  0
 15 14  1  0
 16 11  1  0
 17 11  1  0
 18 10  1  0
 19 18  1  0
 20 16  1  0
 21 17  1  0
 22 19  1  0
  9  7  1  0
M  END
>  <ID>  (29) 


>  <MOLENAME>  (29) 
PROPOXYCAINE HYDROCHLORIDE

>  <therap>  (29) 
local anesthetic

>  <ref>  (29) 
Obstetrics Gynecol 17:90 (1961)

>  <cas#>  (29) 
550-83-4

>  <source>  (29) 
synthetic

>  <status>  (29) 
USP, INN

>  <tradename>  (29) 
BLOCKAIN

>  <SMILES>  (29) 
CCCOc1c(C(=O)OCCN(CC)CC)ccc(N)c1

>  <standardized_failed>  (29) 
False

$$$$

     RDKit          2D

 17 18  0  0  0  0  0  0  0  0999 V2000
    6.7042   -3.5125    0.0000 C   0  0  0  0  0  0  0  0  0  0  0  0
    8.0042   -3.5125    0.0000 C   0  0  0  0  0  0  0  0  0  0  0  0
    6.0417   -3.1292    0.0000 C   0  0  0  0  0  0  0  0  0  0  0  0
    7.3542   -3.1375    0.0000 C   0  0  0  0  0  0  0  0  0  0  0  0
    5.3917   -3.5125    0.0000 C   0  0  0  0  0  0  0  0  0  0  0  0
    5.3917   -4.2667    0.0000 C   0  0  0  0  0  0  0  0  0  0  0  0
    6.7042   -4.2667    0.0000 C   0  0  0  0  0  0  0  0  0  0  0  0
    8.0042   -4.2542    0.0000 O   0  0  0  0  0  0  0  0  0  0  0  0
    4.7417   -4.6417    0.0000 C   0  0  0  0  0  0  0  0  0  0  0  0
    6.0417   -4.6417    0.0000 C   0  0  0  0  0  0  0  0  0  0  0  0
    4.7417   -3.1292    0.0000 C   0  0  0  0  0  0  0  0  0  0  0  0
    4.0917   -4.2667    0.0000 C   0  0  0  0  0  0  0  0  0  0  0  0
    8.6417   -3.1375    0.0000 O   0  0  0  0  0  0  0  0  0  0  0  0
    4.0917   -3.5125    0.0000 C   0  0  0  0  0  0  0  0  0  0  0  0
    3.4417   -4.6417    0.0000 O   0  0  0  0  0  0  0  0  0  0  0  0
    7.3542   -2.3875    0.0000 C   0  0  0  0  0  0  0  0  0  0  0  0
    2.7917   -4.2667    0.0000 C   0  0  0  0  0  0  0  0  0  0  0  0
  2  4  1  0
  3  1  2  0
  4  1  1  0
  5  3  1  0
  6 10  1  0
  7  1  1  0
  8  2  2  0
  9  6  2  0
 10  7  2  0
 11  5  2  0
 12  9  1  0
 13  2  1  0
 14 11  1  0
 15 12  1  0
  4 16  1  6
 17 15  1  0
  6  5  1  0
 12 14  2  0
M  END
>  <ID>  (30) 


>  <MOLENAME>  (30) 
NAPROXEN(+)

>  <therap>  (30) 
antiinflammatory, analgesic, antipyretic

>  <ref>  (30) 
J. Am. Pharm. Assoc. (1996), NS36(11), 663-7; J. Pharmacol. Exp. Ther. (1971), 179(1), 114-23; J. Clin. Pharmacol. (1975), 15(4 Pt. 2), 373-7

>  <cas#>  (30) 
22204-53-1

>  <source>  (30) 
synthetic; RS-3650

>  <status>  (30) 
USP, INN, BAN, JAN

>  <tradename>  (30) 
ALEVE

>  <SMILES>  (30) 
COc1ccc2cc([C@H](C)C(=O)O)ccc2c1

>  <standardized_failed>  (30) 
False

$$$$

     RDKit          2D

 64 71  0  0  0  0  0  0  0  0999 V2000
    4.1750   -3.9625    0.0000 C   0  0  0  0  0  0  0  0  0  0  0  0
    6.9750   -5.9875    0.0000 C   0  0  0  0  0  0  0  0  0  0  0  0
    7.8375   -7.1292    0.0000 C   0  0  0  0  0  0  0  0  0  0  0  0
    3.4000   -3.5375    0.0000 C   0  0  0  0  0  0  0  0  0  0  0  0
    7.0750   -6.8125    0.0000 C   0  0  0  0  0  0  0  0  0  0  0  0
    8.4000   -5.8125    0.0000 C   0  0  0  0  0  0  0  0  0  0  0  0
    6.3250   -7.1625    0.0000 N   0  0  0  0  0  0  0  0  0  0  0  0
    7.6917   -5.4000    0.0000 C   0  0  0  0  0  0  0  0  0  0  0  0
    5.7625   -6.5500    0.0000 C   0  0  0  0  0  0  0  0  0  0  0  0
    8.5000   -6.6375    0.0000 C   0  0  0  0  0  0  0  0  0  0  0  0
    6.1625   -5.8250    0.0000 C   0  0  0  0  0  0  0  0  0  0  0  0
    4.9125   -5.1375    0.0000 C   0  0  0  0  0  0  0  0  0  0  0  0
    2.9167   -2.8667    0.0000 C   0  0  0  0  0  0  0  0  0  0  0  0
    2.9167   -4.1917    0.0000 N   0  0  0  0  0  0  0  0  0  0  0  0
    9.7542   -2.5625    0.0000 S   0  0  0  0  0  0  0  0  0  0  0  0
    4.9292   -6.5625    0.0000 C   0  0  0  0  0  0  0  0  0  0  0  0
    5.7417   -5.1167    0.0000 C   0  0  0  0  0  0  0  0  0  0  0  0
    7.5542   -4.6500    0.0000 N   0  0  0  0  0  0  0  0  0  0  0  0
    3.9625   -4.5250    0.0000 C   0  0  0  0  0  0  0  0  0  0  0  0
    2.1292   -3.1250    0.0000 C   0  0  0  0  0  0  0  0  0  0  0  0
    8.4167   -7.7125    0.0000 C   0  0  0  0  0  0  0  0  0  0  0  0
    4.5125   -5.8500    0.0000 C   0  0  0  0  0  0  0  0  0  0  0  0
    2.1292   -3.9500    0.0000 C   0  0  0  0  0  0  0  0  0  0  0  0
    4.3375   -1.5792    0.0000 N   0  0  0  0  0  0  0  0  0  0  0  0
    6.4542   -5.3500    0.0000 C   0  0  0  0  0  0  0  0  0  0  0  0
    4.9167   -3.6000    0.0000 C   0  0  0  0  0  0  0  0  0  0  0  0
    9.2917   -6.8500    0.0000 O   0  0  0  0  0  0  0  0  0  0  0  0
    9.1167   -5.4042    0.0000 C   0  0  0  0  0  0  0  0  0  0  0  0
    2.9500   -2.2542    0.0000 C   0  0  0  0  0  0  0  0  0  0  0  0
    5.7625   -1.5875    0.0000 C   0  0  0  0  0  0  0  0  0  0  0  0
    5.2625   -2.8417    0.0000 C   0  0  0  0  0  0  0  0  0  0  0  0
   10.1000   -6.7000    0.0000 C   0  0  0  0  0  0  0  0  0  0  0  0
    8.7875   -2.5625    0.0000 O   0  0  0  0  0  0  0  0  0  0  0  0
    9.7500   -1.7375    0.0000 O   0  0  0  0  0  0  0  0  0  0  0  0
    6.7000   -4.5625    0.0000 C   0  0  0  0  0  0  0  0  0  0  0  0
    7.4167   -7.8417    0.0000 O   0  0  0  0  0  0  0  0  0  0  0  0
    9.1250   -4.5792    0.0000 C   0  0  0  0  0  0  0  0  0  0  0  0
    5.0500   -1.1750    0.0000 C   0  0  0  0  0  0  0  0  0  0  0  0
    4.3292   -2.4042    0.0000 C   0  0  0  0  0  0  0  0  0  0  0  0
    8.2000   -8.5125    0.0000 O   0  0  0  0  0  0  0  0  0  0  0  0
    3.3375   -4.5542    0.0000 O   0  0  0  0  0  0  0  0  0  0  0  0
    3.5250   -1.6625    0.0000 C   0  0  0  0  0  0  0  0  0  0  0  0
    9.7542   -3.3875    0.0000 O   0  0  0  0  0  0  0  0  0  0  0  0
   10.5667   -2.5625    0.0000 O   0  0  0  0  0  0  0  0  0  0  0  0
   10.2042   -6.0500    0.0000 O   0  0  0  0  0  0  0  0  0  0  0  0
    5.9375   -2.3750    0.0000 C   0  0  0  0  0  0  0  0  0  0  0  0
    9.1167   -6.0250    0.0000 C   0  0  0  0  0  0  0  0  0  0  0  0
    6.1750   -7.9750    0.0000 C   0  0  0  0  0  0  0  0  0  0  0  0
    8.4125   -4.1625    0.0000 C   0  0  0  0  0  0  0  0  0  0  0  0
    9.2125   -7.5000    0.0000 O   0  0  0  0  0  0  0  0  0  0  0  0
    4.1250   -5.0875    0.0000 O   0  0  0  0  0  0  0  0  0  0  0  0
    3.6875   -5.8625    0.0000 O   0  0  0  0  0  0  0  0  0  0  0  0
    6.3000   -0.9542    0.0000 O   0  0  0  0  0  0  0  0  0  0  0  0
    1.4250   -2.7125    0.0000 C   0  0  0  0  0  0  0  0  0  0  0  0
    1.4250   -4.3625    0.0000 C   0  0  0  0  0  0  0  0  0  0  0  0
    6.4750   -2.0042    0.0000 C   0  0  0  0  0  0  0  0  0  0  0  0
   10.7667   -7.1750    0.0000 C   0  0  0  0  0  0  0  0  0  0  0  0
    3.2500   -5.4625    0.0000 C   0  0  0  0  0  0  0  0  0  0  0  0
    9.8000   -8.0792    0.0000 C   0  0  0  0  0  0  0  0  0  0  0  0
    3.2667   -6.5750    0.0000 C   0  0  0  0  0  0  0  0  0  0  0  0
    9.6792   -5.6125    0.0000 C   0  0  0  0  0  0  0  0  0  0  0  0
    7.1875   -1.5917    0.0000 C   0  0  0  0  0  0  0  0  0  0  0  0
    0.7000   -3.1250    0.0000 C   0  0  0  0  0  0  0  0  0  0  0  0
    0.7000   -3.9500    0.0000 C   0  0  0  0  0  0  0  0  0  0  0  0
  2 11  1  0
  3  5  1  0
  4  1  1  0
  5  2  1  0
  6  8  1  0
  7  9  1  0
  8  2  1  0
  9 16  2  0
 10  6  1  0
 11 17  2  0
  1 12  1  0
 13  4  2  0
 14  4  1  0
 16 22  1  0
 17 12  1  0
  8 18  1  1
  1 19  1  1
 20 13  1  0
  3 21  1  0
 22 12  2  0
 23 14  1  0
 24 39  1  0
  2 25  1  1
 26  1  1  0
 10 27  1  1
 28  6  1  0
 29 13  1  0
 30 46  1  0
 31 26  1  0
 32 27  1  0
 33 15  2  0
 34 15  2  0
 35 25  1  0
  3 36  1  1
 37 49  1  0
 38 30  1  0
 39 31  1  0
 40 21  2  0
 41 19  2  0
 42 29  1  0
 43 15  1  0
 44 15  1  0
 45 32  2  0
 46 31  1  0
  6 47  1  6
 48  7  1  0
 49 18  1  0
 50 21  1  0
 51 19  1  0
 52 22  1  0
 30 53  1  1
 54 20  2  0
 55 23  2  0
 30 56  1  0
 57 32  1  0
 58 51  1  0
 59 50  1  0
 60 52  1  0
 61 47  1  0
 62 56  1  0
 63 54  1  0
 64 55  1  0
 23 20  1  0
  9 11  1  0
 42 24  1  0
 64 63  2  0
 38 24  1  0
  5  7  1  6
 35 18  1  0
 10  3  1  0
 37 28  2  0
M  END
>  <ID>  (31) 


>  <MOLENAME>  (31) 
VINBLASTINE SULFATE

>  <therap>  (31) 
antineoplastic, spindle poison

>  <ref>  (31) 
J Clin Oncol 14:527 (1996); Beitr Onkol 6:95 (1981)

>  <cas#>  (31) 
143-67-9, 865-21-4 [vinblastine]

>  <source>  (31) 
Vinca rosea

>  <status>  (31) 
USP, INN, BAN, JAN

>  <tradename>  (31) 
VELBAN

>  <SMILES>  (31) 
CC[C@]1(O)CC2CN(CCc3c([nH]c4ccccc34)[C@@](C(=O)OC)(c3c(OC)cc4c(c3)[C@@]35CCN6CC=C[C@@](CC)([C@@H](OC(C)=O)[C@](O)(C(=O)OC)[C@@H]3N4C)[C@H]65)C2)C1

>  <standardized_failed>  (31) 
False

$$$$

     RDKit          2D

 36 39  0  0  0  0  0  0  0  0999 V2000
    5.0417   -1.0000    0.0000 C   0  0  0  0  0  0  0  0  0  0  0  0
    5.7167   -0.0333    0.0000 N   0  0  0  0  0  0  0  0  0  0  0  0
    4.9042   -0.1875    0.0000 C   0  0  0  0  0  0  0  0  0  0  0  0
    5.8542   -0.8500    0.0000 C   0  0  0  0  0  0  0  0  0  0  0  0
    3.7708   -4.0500    0.0000 C   0  0  0  0  0  0  0  0  0  0  0  0
    9.1625    0.9875    0.0000 C   0  0  0  0  0  0  0  0  0  0  0  0
    6.3417    0.4875    0.0000 C   0  0  0  0  0  0  0  0  0  0  0  0
    4.5667   -1.6750    0.0000 N   0  0  0  0  0  0  0  0  0  0  0  0
    3.2958   -4.7250    0.0000 C   0  0  0  0  0  0  0  0  0  0  0  0
    4.5833   -3.9083    0.0000 S   0  0  0  0  0  0  0  0  0  0  0  0
    3.6292   -3.2375    0.0000 S   0  0  0  0  0  0  0  0  0  0  0  0
    9.1000    1.8000    0.0000 N   0  0  0  0  0  0  0  0  0  0  0  0
    9.9542    0.7875    0.0000 N   0  0  0  0  0  0  0  0  0  0  0  0
   10.3917    1.4875    0.0000 N   0  0  0  0  0  0  0  0  0  0  0  0
    4.4417   -3.1000    0.0000 C   0  0  0  0  0  0  0  0  0  0  0  0
    9.8667    2.1125    0.0000 N   0  0  0  0  0  0  0  0  0  0  0  0
    6.6292   -1.1375    0.0000 S   0  0  0  0  0  0  0  0  0  0  0  0
    7.1167    0.2000    0.0000 C   0  0  0  0  0  0  0  0  0  0  0  0
    4.9167   -2.4250    0.0000 C   0  0  0  0  0  0  0  0  0  0  0  0
    3.6417   -5.4750    0.0000 C   0  0  0  0  0  0  0  0  0  0  0  0
    2.4750   -4.6542    0.0000 C   0  0  0  0  0  0  0  0  0  0  0  0
    6.2042    1.3000    0.0000 C   0  0  0  0  0  0  0  0  0  0  0  0
    8.5292    0.4500    0.0000 S   0  0  0  0  0  0  0  0  0  0  0  0
    7.2625   -0.6125    0.0000 C   0  0  0  0  0  0  0  0  0  0  0  0
    4.2167    0.2875    0.0000 O   0  0  0  0  0  0  0  0  0  0  0  0
    7.7542    0.7375    0.0000 C   0  0  0  0  0  0  0  0  0  0  0  0
    4.2417   -0.7750    0.0000 O   0  0  0  0  0  0  0  0  0  0  0  0
    5.7417   -2.5000    0.0000 O   0  0  0  0  0  0  0  0  0  0  0  0
    4.4667   -5.5500    0.0000 O   0  0  0  0  0  0  0  0  0  0  0  0
    2.1250   -3.9042    0.0000 O   0  0  0  0  0  0  0  0  0  0  0  0
    5.4292    1.5750    0.0000 O   0  0  0  0  0  0  0  0  0  0  0  0
    3.1667   -6.1500    0.0000 N   0  0  0  0  0  0  0  0  0  0  0  0
    2.0000   -5.3292    0.0000 O   0  0  0  0  0  0  0  0  0  0  0  0
    8.4000    2.2375    0.0000 C   0  0  0  0  0  0  0  0  0  0  0  0
    6.8292    1.8250    0.0000 O   0  0  0  0  0  0  0  0  0  0  0  0
    3.6542   -1.3625    0.0000 C   0  0  0  0  0  0  0  0  0  0  0  0
  2  4  1  0
  3  1  1  0
  4  1  1  0
  5 10  1  0
  6 23  1  0
  7  2  1  0
  1  8  1  6
  9  5  2  0
 10 15  1  0
 11 15  1  0
 12  6  1  0
 13  6  2  0
 14 13  1  0
 15 19  1  0
 16 12  1  0
 17  4  1  0
 18 24  1  0
 19  8  1  0
 20  9  1  0
 21  9  1  0
 22  7  1  0
 23 26  1  0
 24 17  1  0
 25  3  2  0
 26 18  1  0
  1 27  1  0
 28 19  2  0
 29 20  2  0
 30 21  2  0
 31 22  2  0
 32 20  1  0
 33 21  1  0
 34 12  1  0
 35 22  1  0
 36 27  1  0
  2  3  1  0
  7 18  2  0
  5 11  1  0
 14 16  2  0
M  END
>  <ID>  (32) 


>  <MOLENAME>  (32) 
CEFOTETAN

>  <therap>  (32) 
antibacterial

>  <ref>  (32) 
J Antimicrob Chemother 10:151 (1982); 11 Suppl A:1 (1983); Drugs 30:382 (1985)

>  <cas#>  (32) 
6971256-7

>  <source>  (32) 
semisynthetic; ICI-156834

>  <status>  (32) 
USP, INN, BAN

>  <tradename>  (32) 
CEFOTAN

>  <SMILES>  (32) 
CO[C@@]1(NC(=O)C2SC(=C(C(N)=O)C(=O)O)S2)C(=O)N2C(C(=O)O)=C(CSc3nnnn3C)CSC21

>  <standardized_failed>  (32) 
False

$$$$

     RDKit          2D

 28 27  0  0  0  0  0  0  0  0999 V2000
    2.9208   -3.3083    0.0000 C   0  0  0  0  0  0  0  0  0  0  0  0
    2.9208   -4.1333    0.0000 C   0  0  0  0  0  0  0  0  0  0  0  0
    7.9042   -0.4167    0.0000 C   0  0  0  0  0  0  0  0  0  0  0  0
    4.3500   -1.6542    0.0000 N   0  0  0  0  0  0  0  0  0  0  0  0
    5.0667   -2.0583    0.0000 N   0  0  0  0  0  0  0  0  0  0  0  0
   10.0417   -1.6500    0.0000 C   0  0  0  0  0  0  0  0  0  0  0  0
    2.2083   -2.8958    0.0000 C   0  0  0  0  0  0  0  0  0  0  0  0
    3.6375   -2.8958    0.0000 C   0  0  0  0  0  0  0  0  0  0  0  0
    7.1917   -0.8333    0.0000 C   0  0  0  0  0  0  0  0  0  0  0  0
    3.6375   -4.5458    0.0000 O   0  0  0  0  0  0  0  0  0  0  0  0
   10.0417   -0.8250    0.0000 C   0  0  0  0  0  0  0  0  0  0  0  0
    2.2083   -4.5458    0.0000 O   0  0  0  0  0  0  0  0  0  0  0  0
   10.7583   -2.0583    0.0000 O   0  0  0  0  0  0  0  0  0  0  0  0
    7.9000    0.4083    0.0000 O   0  0  0  0  0  0  0  0  0  0  0  0
    9.3292   -2.0625    0.0000 O   0  0  0  0  0  0  0  0  0  0  0  0
    3.6375   -2.0667    0.0000 C   0  0  0  0  0  0  0  0  0  0  0  0
    8.6167   -0.8292    0.0000 N   0  0  0  0  0  0  0  0  0  0  0  0
    2.2083   -2.0667    0.0000 C   0  0  0  0  0  0  0  0  0  0  0  0
    7.1917   -1.6500    0.0000 C   0  0  0  0  0  0  0  0  0  0  0  0
    6.4792   -0.4250    0.0000 C   0  0  0  0  0  0  0  0  0  0  0  0
    5.7750   -1.6458    0.0000 C   0  0  0  0  0  0  0  0  0  0  0  0
    9.3292   -0.4167    0.0000 C   0  0  0  0  0  0  0  0  0  0  0  0
    2.9208   -1.6542    0.0000 C   0  0  0  0  0  0  0  0  0  0  0  0
    5.7750   -0.8333    0.0000 C   0  0  0  0  0  0  0  0  0  0  0  0
    6.4833   -2.0583    0.0000 C   0  0  0  0  0  0  0  0  0  0  0  0
    1.4917   -3.3083    0.0000 O   0  0  0  0  0  0  0  0  0  0  0  0
    4.8042   -4.0250    0.0000 Na  0  0  0  0  0 15  0  0  0  0  0  0
   11.6500   -1.3667    0.0000 Na  0  0  0  0  0 15  0  0  0  0  0  0
  2  1  1  0
  3  9  1  0
  4 16  1  0
  5  4  2  0
  6 11  1  0
  7  1  2  0
  8  1  1  0
  9 19  2  0
 10  2  1  0
 11 22  1  0
 12  2  2  0
 13  6  1  0
 14  3  2  0
 15  6  2  0
 16  8  2  0
 17  3  1  0
 18  7  1  0
 19 25  1  0
 20 24  2  0
 21  5  1  0
 22 17  1  0
 23 18  2  0
 24 21  1  0
 25 21  2  0
 26  7  1  0
 23 16  1  0
 20  9  1  0
M  CHG  4  10  -1  13  -1  27   1  28   1
M  END
>  <ID>  (33) 


>  <MOLENAME>  (33) 
BALSALAZIDE DISODIUM

>  <therap>  (33) 
antiinflammatory

>  <ref>  (33) 
Dig Dis Sci 28:609 (1983); Drugs 56:83:1998

>  <cas#>  (33) 
150399-21-6

>  <source>  (33) 
synthetic; BX-661A

>  <status>  (33) 
USAN, INN, BAN

>  <tradename>  (33) 
COLAZAL

>  <SMILES>  (33) 
O=C(O)CCNC(=O)c1ccc(/N=N/c2cc(C(=O)O)c(O)cc2)cc1

>  <standardized_failed>  (33) 
False

$$$$

     RDKit          2D

 22 21  0  0  0  0  0  0  0  0999 V2000
    5.1625   -1.3625    0.0000 C   0  0  0  0  0  0  0  0  0  0  0  0
    4.4500   -1.7750    0.0000 C   0  0  0  0  0  0  0  0  0  0  0  0
    3.0167   -1.7750    0.0000 C   0  0  0  0  0  0  0  0  0  0  0  0
    3.7292   -1.3625    0.0000 C   0  0  0  0  0  0  0  0  0  0  0  0
    3.0167   -2.6042    0.0000 C   0  0  0  0  0  0  0  0  0  0  0  0
    5.1542   -0.5375    0.0000 O   0  0  0  0  0  0  0  0  0  0  0  0
    4.4500   -2.6042    0.0000 C   0  0  0  0  0  0  0  0  0  0  0  0
    3.7292   -3.0167    0.0000 C   0  0  0  0  0  0  0  0  0  0  0  0
    2.3042   -1.3667    0.0000 N   0  0  0  0  0  0  0  0  0  0  0  0
    5.8750   -1.7667    0.0000 O   0  0  0  0  0  0  0  0  0  0  0  0
    8.0125   -1.3542    0.0000 N   0  0  0  0  0  0  0  0  0  0  0  0
    8.4792   -2.8375    0.0000 Cl  0  0  0  0  0  0  0  0  0  0  0  0
    2.3042   -3.0125    0.0000 O   0  0  0  0  0  0  0  0  0  0  0  0
    6.5875   -1.3542    0.0000 C   0  0  0  0  0  0  0  0  0  0  0  0
    7.3000   -1.7667    0.0000 C   0  0  0  0  0  0  0  0  0  0  0  0
    8.0042   -0.5292    0.0000 C   0  0  0  0  0  0  0  0  0  0  0  0
    8.7250   -1.7625    0.0000 C   0  0  0  0  0  0  0  0  0  0  0  0
    1.5917   -2.6000    0.0000 C   0  0  0  0  0  0  0  0  0  0  0  0
    0.8792   -3.0042    0.0000 C   0  0  0  0  0  0  0  0  0  0  0  0
    8.7167   -0.1125    0.0000 C   0  0  0  0  0  0  0  0  0  0  0  0
    9.4375   -1.3500    0.0000 C   0  0  0  0  0  0  0  0  0  0  0  0
    0.1667   -2.5917    0.0000 C   0  0  0  0  0  0  0  0  0  0  0  0
  2  1  1  0
  3  4  1  0
  4  2  2  0
  5  8  1  0
  6  1  2  0
  7  2  1  0
  8  7  2  0
  9  3  1  0
 10  1  1  0
 11 15  1  0
 13  5  1  0
 14 10  1  0
 15 14  1  0
 16 11  1  0
 17 11  1  0
 18 13  1  0
 19 18  1  0
 20 16  1  0
 21 17  1  0
 22 19  1  0
  5  3  2  0
M  END
>  <ID>  (34) 


>  <MOLENAME>  (34) 
PROPARACAINE HYDROCHLORIDE

>  <therap>  (34) 
local anesthetic

>  <ref>  (34) 
J Pharmacol Exp Ther 63:369 (1938); Anal Profiles Drug Subs 6:423 (1977)

>  <cas#>  (34) 
575-06-98

>  <source>  (34) 
synthetic

>  <status>  (34) 
USP, INN, BAN

>  <tradename>  (34) 
ALCAINE

>  <SMILES>  (34) 
CCCOc1c(N)cc(C(=O)OCCN(CC)CC)cc1

>  <standardized_failed>  (34) 
False

$$$$

     RDKit          2D

 12 12  0  0  0  0  0  0  0  0999 V2000
   -1.2000   -2.2042    0.0000 C   0  0  0  0  0  0  0  0  0  0  0  0
   -1.9500   -2.2042    0.0000 C   0  0  0  0  0  0  0  0  0  0  0  0
   -0.8250   -1.5542    0.0000 C   0  0  0  0  0  0  0  0  0  0  0  0
   -2.3250   -1.5542    0.0000 C   0  0  0  0  0  0  0  0  0  0  0  0
   -1.2000   -0.9042    0.0000 C   0  0  0  0  0  0  0  0  0  0  0  0
   -1.9500   -0.9042    0.0000 C   0  0  0  0  0  0  0  0  0  0  0  0
   -0.0750   -1.5542    0.0000 C   0  0  0  0  0  0  0  0  0  0  0  0
   -2.3333   -2.8542    0.0000 O   0  0  0  0  0  0  0  0  0  0  0  0
   -3.0750   -1.5542    0.0000 O   0  0  0  0  0  0  0  0  0  0  0  0
    1.0500   -0.9125    0.0000 N   0  0  0  0  0  0  0  0  0  0  0  0
   -0.0750   -0.8042    0.0000 O   0  0  0  0  0  0  0  0  0  0  0  0
    0.6750   -1.5542    0.0000 C   0  0  0  0  0  0  0  0  0  0  0  0
  2  1  2  0
  3  1  1  0
  4  2  1  0
  5  3  2  0
  6  5  1  0
  7  3  1  0
  8  2  1  0
  9  4  1  0
 10 12  1  0
  7 11  1  6
 12  7  1  0
  6  4  2  0
M  END
>  <ID>  (35) 


>  <MOLENAME>  (35) 
NOREPINEPHRINE

>  <therap>  (35) 
adrenergic agonist, antihypotensive

>  <ref>  (35) 
Clin. Chem. (1989), 35(5), 721-5; Science (1967), 156(3771), 21-37; Circulation (1960), 22, 1125-32

>  <cas#>  (35) 
69815-49-2, 51-40-1 [anhydrous],  51-41-2 [norepinephrine]

>  <source>  (35) 
synthetic

>  <status>  (35) 
USP, INN, BAN

>  <tradename>  (35) 
nan

>  <SMILES>  (35) 
NC[C@H](O)c1ccc(O)c(O)c1

>  <standardized_failed>  (35) 
False

$$$$

     RDKit          2D

 22 25  0  0  0  0  0  0  0  0999 V2000
    7.4292   -6.7917    0.0000 C   0  0  0  0  0  0  0  0  0  0  0  0
    7.4292   -7.5417    0.0000 C   0  0  0  0  0  0  0  0  0  0  0  0
    5.4792   -8.6667    0.0000 C   0  0  0  0  0  0  0  0  0  0  0  0
    6.7792   -7.9167    0.0000 C   0  0  0  0  0  0  0  0  0  0  0  0
    6.1292   -7.5417    0.0000 C   0  0  0  0  0  0  0  0  0  0  0  0
    5.4792   -7.9167    0.0000 C   0  0  0  0  0  0  0  0  0  0  0  0
    8.1417   -6.5667    0.0000 C   0  0  0  0  0  0  0  0  0  0  0  0
    4.8292   -9.0417    0.0000 C   0  0  0  0  0  0  0  0  0  0  0  0
    8.3042   -5.8375    0.0000 C   0  0  0  0  0  0  0  0  0  0  0  0
    6.7667   -6.4167    0.0000 C   0  0  0  0  0  0  0  0  0  0  0  0
    6.1292   -6.7917    0.0000 C   0  0  0  0  0  0  0  0  0  0  0  0
    6.7792   -8.6667    0.0000 C   0  0  0  0  0  0  0  0  0  0  0  0
    8.1417   -7.7750    0.0000 C   0  0  0  0  0  0  0  0  0  0  0  0
    8.4667   -5.1042    0.0000 C   0  0  0  0  0  0  0  0  0  0  0  0
    4.8292   -7.5417    0.0000 C   0  0  0  0  0  0  0  0  0  0  0  0
    6.1292   -9.0417    0.0000 C   0  0  0  0  0  0  0  0  0  0  0  0
    4.1792   -8.6667    0.0000 C   0  0  0  0  0  0  0  0  0  0  0  0
    8.5792   -7.1625    0.0000 C   0  0  0  0  0  0  0  0  0  0  0  0
    3.5292   -9.0500    0.0000 O   0  0  0  0  0  0  0  0  0  0  0  0
    4.1792   -7.9167    0.0000 C   0  0  0  0  0  0  0  0  0  0  0  0
    9.1042   -6.5542    0.0000 O   0  0  0  0  0  0  0  0  0  0  0  0
    7.4167   -6.0542    0.0000 C   0  0  0  0  0  0  0  0  0  0  0  0
  2  1  1  0
  3  6  1  0
  4  2  1  0
  5 11  1  0
  6  5  1  0
  7  1  1  0
  8  3  2  0
  7  9  1  0
 10  1  1  0
 11 10  1  0
 12  4  1  0
 13  2  1  0
 14  9  3  0
  6 15  1  6
 16 12  1  0
 17 20  1  0
 18  7  1  0
 19 17  2  0
 20 15  1  0
  7 21  1  1
  1 22  1  1
 18 13  1  0
  5  4  1  0
 16  3  1  0
 17  8  1  0
M  END
>  <ID>  (36) 


>  <MOLENAME>  (36) 
NORETHINDRONE

>  <therap>  (36) 
progestogen

>  <ref>  (36) 
Drugs (1973), 6(3), 169-81; JAMA, J. Am. Med. Assoc. (1962), 180(5), 359-61; J. Clin. Endocrinol. Metab. (1962), 22, 1033-9

>  <cas#>  (36) 
68-22-4

>  <source>  (36) 
synthetic

>  <status>  (36) 
USP, INN, BAN, JAN

>  <tradename>  (36) 
MICRONOR

>  <SMILES>  (36) 
C#C[C@]1(O)CCC2C3CCC4=CC(=O)CC[C@@H]4C3CC[C@@]21C

>  <standardized_failed>  (36) 
False

$$$$

     RDKit          2D

 22 25  0  0  0  0  0  0  0  0999 V2000
   -0.1958   -3.9167    0.0000 C   0  0  0  0  0  0  0  0  0  0  0  0
    1.7542   -2.7917    0.0000 C   0  0  0  0  0  0  0  0  0  0  0  0
    1.7542   -3.5417    0.0000 C   0  0  0  0  0  0  0  0  0  0  0  0
    0.4542   -3.5417    0.0000 C   0  0  0  0  0  0  0  0  0  0  0  0
   -0.1958   -4.6667    0.0000 C   0  0  0  0  0  0  0  0  0  0  0  0
    1.1042   -3.9167    0.0000 C   0  0  0  0  0  0  0  0  0  0  0  0
    2.4667   -2.5667    0.0000 C   0  0  0  0  0  0  0  0  0  0  0  0
    2.6292   -1.8375    0.0000 C   0  0  0  0  0  0  0  0  0  0  0  0
    1.0917   -2.4167    0.0000 C   0  0  0  0  0  0  0  0  0  0  0  0
    0.4542   -2.7917    0.0000 C   0  0  0  0  0  0  0  0  0  0  0  0
   -0.8458   -3.5417    0.0000 C   0  0  0  0  0  0  0  0  0  0  0  0
    1.1042   -4.6667    0.0000 C   0  0  0  0  0  0  0  0  0  0  0  0
    2.4667   -3.7750    0.0000 C   0  0  0  0  0  0  0  0  0  0  0  0
    2.7917   -1.1042    0.0000 C   0  0  0  0  0  0  0  0  0  0  0  0
   -0.8458   -5.0417    0.0000 C   0  0  0  0  0  0  0  0  0  0  0  0
    0.4542   -5.0417    0.0000 C   0  0  0  0  0  0  0  0  0  0  0  0
    2.9042   -3.1625    0.0000 C   0  0  0  0  0  0  0  0  0  0  0  0
   -1.4958   -4.6667    0.0000 C   0  0  0  0  0  0  0  0  0  0  0  0
   -2.1458   -5.0500    0.0000 O   0  0  0  0  0  0  0  0  0  0  0  0
   -1.4958   -3.9167    0.0000 C   0  0  0  0  0  0  0  0  0  0  0  0
    3.4292   -2.5542    0.0000 O   0  0  0  0  0  0  0  0  0  0  0  0
    1.7417   -2.0542    0.0000 C   0  0  0  0  0  0  0  0  0  0  0  0
  2  9  1  0
  3  6  1  0
  4  1  1  0
  5  1  2  0
  6  4  1  0
  7  2  1  0
  7  8  1  0
  9 10  1  0
 10  4  1  0
 11  1  1  0
 12 16  1  0
 13  3  1  0
 14  8  3  0
 15  5  1  0
 16  5  1  0
 17 13  1  0
 18 20  1  0
 19 18  2  0
 20 11  1  0
  7 21  1  1
  2 22  1  1
 18 15  1  0
  6 12  1  0
  3  2  1  0
 17  7  1  0
M  END
>  <ID>  (37) 


>  <MOLENAME>  (37) 
NORETHYNODREL

>  <therap>  (37) 
progestogen, in combination with estrogen as oral contraceptive

>  <ref>  (37) 
Int. J. Fertil. (1991), 36 Suppl 316-25; Br. Med. J. (1962), 2(5311), 1016-9; J. Clin. Endocrinol. Metab. (1962), 22, 1033-9

>  <cas#>  (37) 
68-23-5

>  <source>  (37) 
synthetic, SC-4642

>  <status>  (37) 
USP

>  <tradename>  (37) 
nan

>  <SMILES>  (37) 
C#C[C@]1(O)CCC2C3CCC4=C(CCC(=O)C4)C3CC[C@@]21C

>  <standardized_failed>  (37) 
False

$$$$

     RDKit          2D

 23 25  0  0  0  0  0  0  0  0999 V2000
    7.6750   -2.9250    0.0000 C   0  0  0  0  0  0  0  0  0  0  0  0
    6.3667   -2.9250    0.0000 C   0  0  0  0  0  0  0  0  0  0  0  0
    7.0167   -2.5500    0.0000 C   0  0  0  0  0  0  0  0  0  0  0  0
    6.3667   -3.6792    0.0000 C   0  0  0  0  0  0  0  0  0  0  0  0
    7.6750   -3.6792    0.0000 C   0  0  0  0  0  0  0  0  0  0  0  0
    7.0167   -4.0542    0.0000 N   0  0  0  0  0  0  0  0  0  0  0  0
    5.7125   -4.0542    0.0000 C   0  0  0  0  0  0  0  0  0  0  0  0
    5.0667   -3.6792    0.0000 C   0  0  0  0  0  0  0  0  0  0  0  0
    5.7125   -2.5500    0.0000 C   0  0  0  0  0  0  0  0  0  0  0  0
    8.3250   -2.5500    0.0000 C   0  0  0  0  0  0  0  0  0  0  0  0
    5.0667   -2.9250    0.0000 C   0  0  0  0  0  0  0  0  0  0  0  0
    4.4750   -4.0167    0.0000 N   0  0  0  0  0  0  0  0  0  0  0  0
    7.0167   -1.8000    0.0000 O   0  0  0  0  0  0  0  0  0  0  0  0
    3.1750   -4.7667    0.0000 N   0  0  0  0  0  0  0  0  0  0  0  0
    8.3250   -1.8000    0.0000 O   0  0  0  0  0  0  0  0  0  0  0  0
    4.4125   -2.5500    0.0000 F   0  0  0  0  0  0  0  0  0  0  0  0
    8.9750   -2.9250    0.0000 O   0  0  0  0  0  0  0  0  0  0  0  0
    7.0167   -4.8042    0.0000 C   0  0  0  0  0  0  0  0  0  0  0  0
    3.8167   -3.6417    0.0000 C   0  0  0  0  0  0  0  0  0  0  0  0
    4.4750   -4.7667    0.0000 C   0  0  0  0  0  0  0  0  0  0  0  0
    3.1750   -4.0167    0.0000 C   0  0  0  0  0  0  0  0  0  0  0  0
    3.8167   -5.1417    0.0000 C   0  0  0  0  0  0  0  0  0  0  0  0
    6.3667   -5.1792    0.0000 C   0  0  0  0  0  0  0  0  0  0  0  0
  2  3  1  0
  3  1  1  0
  4  6  1  0
  5  1  2  0
  6  5  1  0
  7  4  2  0
  8  7  1  0
  9  2  2  0
 10  1  1  0
 11  9  1  0
 12  8  1  0
 13  3  2  0
 14 22  1  0
 15 10  2  0
 16 11  1  0
 17 10  1  0
 18  6  1  0
 19 12  1  0
 20 12  1  0
 21 19  1  0
 22 20  1  0
 23 18  1  0
  4  2  1  0
  8 11  2  0
 14 21  1  0
M  END
>  <ID>  (38) 


>  <MOLENAME>  (38) 
NORFLOXACIN

>  <therap>  (38) 
antibacterial

>  <ref>  (38) 
N Z Med J 96:590 (1983); Rinsho Ketsueki 33:823 (1992); Rev Med Interne 17:859 (1996)

>  <cas#>  (38) 
70458-96-7

>  <source>  (38) 
synthetic; MK-366

>  <status>  (38) 
USP, INN, BAN, JAN

>  <tradename>  (38) 
NOROXIN

>  <SMILES>  (38) 
CCn1cc(C(=O)O)c(=O)c2cc(F)c(N3CCNCC3)cc21

>  <standardized_failed>  (38) 
False

$$$$

     RDKit          2D

 35 39  0  0  0  0  0  0  0  0999 V2000
    7.1083   -5.9542    0.0000 C   0  0  0  0  0  0  0  0  0  0  0  0
    7.1083   -5.1292    0.0000 C   0  0  0  0  0  0  0  0  0  0  0  0
    5.6792   -5.1250    0.0000 N   0  0  0  0  0  0  0  0  0  0  0  0
    7.8917   -6.2083    0.0000 N   0  0  0  0  0  0  0  0  0  0  0  0
    8.3750   -5.5375    0.0000 C   0  0  0  0  0  0  0  0  0  0  0  0
    6.3875   -6.3667    0.0000 N   0  0  0  0  0  0  0  0  0  0  0  0
    5.6750   -5.9500    0.0000 C   0  0  0  0  0  0  0  0  0  0  0  0
    6.3917   -4.7125    0.0000 C   0  0  0  0  0  0  0  0  0  0  0  0
    7.8875   -4.8750    0.0000 N   0  0  0  0  0  0  0  0  0  0  0  0
    9.2000   -5.5375    0.0000 N   0  0  0  0  0  0  0  0  0  0  0  0
    4.2500   -5.1292    0.0000 C   0  0  0  0  0  0  0  0  0  0  0  0
    4.2500   -5.9542    0.0000 N   0  0  0  0  0  0  0  0  0  0  0  0
    3.5333   -4.7208    0.0000 N   0  0  0  0  0  0  0  0  0  0  0  0
    4.9625   -4.7125    0.0000 C   0  0  0  0  0  0  0  0  0  0  0  0
    3.5417   -6.3750    0.0000 C   0  0  0  0  0  0  0  0  0  0  0  0
    2.8250   -5.9625    0.0000 C   0  0  0  0  0  0  0  0  0  0  0  0
    2.8250   -5.1375    0.0000 C   0  0  0  0  0  0  0  0  0  0  0  0
    8.9500   -3.9167    0.0000 C   0  0  0  0  0  0  0  0  0  0  0  0
    9.7417   -3.7000    0.0000 C   0  0  0  0  0  0  0  0  0  0  0  0
    4.9667   -6.3667    0.0000 O   0  0  0  0  0  0  0  0  0  0  0  0
    6.3875   -3.8875    0.0000 O   0  0  0  0  0  0  0  0  0  0  0  0
    9.6083   -6.2500    0.0000 C   0  0  0  0  0  0  0  0  0  0  0  0
    8.1417   -4.0875    0.0000 C   0  0  0  0  0  0  0  0  0  0  0  0
    6.3833   -7.1917    0.0000 C   0  0  0  0  0  0  0  0  0  0  0  0
    9.6042   -4.8208    0.0000 C   0  0  0  0  0  0  0  0  0  0  0  0
   10.4333   -6.2500    0.0000 C   0  0  0  0  0  0  0  0  0  0  0  0
   10.8417   -6.9667    0.0000 N   0  0  0  0  0  0  0  0  0  0  0  0
    3.5417   -7.2000    0.0000 C   0  0  0  0  0  0  0  0  0  0  0  0
    2.1083   -6.3792    0.0000 C   0  0  0  0  0  0  0  0  0  0  0  0
   10.5417   -3.4792    0.0000 C   0  0  0  0  0  0  0  0  0  0  0  0
   10.4333   -4.8250    0.0000 C   0  0  0  0  0  0  0  0  0  0  0  0
    2.1083   -4.7250    0.0000 C   0  0  0  0  0  0  0  0  0  0  0  0
   10.8458   -5.5375    0.0000 C   0  0  0  0  0  0  0  0  0  0  0  0
    1.3958   -5.9667    0.0000 C   0  0  0  0  0  0  0  0  0  0  0  0
    1.3958   -5.1375    0.0000 C   0  0  0  0  0  0  0  0  0  0  0  0
  2  1  2  0
  3  7  1  0
  4  1  1  0
  5  4  2  0
  6  1  1  0
  7  6  1  0
  8  2  1  0
  9  2  1  0
 10  5  1  0
 11 14  1  0
 12 11  2  0
 13 11  1  0
 14  3  1  0
 15 12  1  0
 16 15  2  0
 17 13  2  0
 18 23  1  0
 19 18  3  0
 20  7  2  0
 21  8  2  0
 22 10  1  0
 23  9  1  0
 24  6  1  0
 25 10  1  0
 26 22  1  0
 26 27  1  1
 28 15  1  0
 29 16  1  0
 30 19  1  0
 31 25  1  0
 32 17  1  0
 33 31  1  0
 34 29  2  0
 35 32  2  0
  9  5  1  0
  8  3  1  0
 33 26  1  0
 16 17  1  0
 34 35  1  0
M  END
>  <ID>  (39) 


>  <MOLENAME>  (39) 
LINAGLIPTIN

>  <therap>  (39) 
dipeptidypeptidase inhibitor, antidiabetic

>  <ref>  (39) 
J Med Chem 50:6450 (2007); J Pharm Pharmacol 61:55 (2009); Drug Metab Disp 38:667 (2010)

>  <cas#>  (39) 
668270-12-0

>  <source>  (39) 
synthetic; BI-1356

>  <status>  (39) 
USAN, INN

>  <tradename>  (39) 
TRADJENTA

>  <SMILES>  (39) 
CC#CCn1c(N2CCC[C@@H](N)C2)nc2c1c(=O)n(Cc1nc(C)c3ccccc3n1)c(=O)n2C

>  <standardized_failed>  (39) 
False

$$$$

     RDKit          2D

 15 15  0  0  0  0  0  0  0  0999 V2000
    3.8792   -2.1000    0.0000 N   0  0  0  0  0  0  0  0  0  0  0  0
    2.9792   -2.3917    0.0000 C   0  0  0  0  0  0  0  0  0  0  0  0
    4.1750   -3.0000    0.0000 C   0  0  0  0  0  0  0  0  0  0  0  0
    4.6542   -1.5417    0.0000 C   0  0  0  0  0  0  0  0  0  0  0  0
    5.4125   -2.1000    0.0000 C   0  0  0  0  0  0  0  0  0  0  0  0
    5.1250   -3.0000    0.0000 O   0  0  0  0  0  0  0  0  0  0  0  0
    3.2667   -3.2917    0.0000 C   0  0  0  0  0  0  0  0  0  0  0  0
    4.6625   -0.5917    0.0000 C   0  0  0  0  0  0  0  0  0  0  0  0
    6.3125   -1.8125    0.0000 C   0  0  0  0  0  0  0  0  0  0  0  0
    2.1292   -1.9542    0.0000 O   0  0  0  0  0  0  0  0  0  0  0  0
    3.8500   -0.1167    0.0000 O   0  0  0  0  0  0  0  0  0  0  0  0
    5.4792   -0.1292    0.0000 O   0  0  0  0  0  0  0  0  0  0  0  0
    7.3542   -0.1167    0.0000 Li  0  0  0  0  0  1  0  0  0  0  0  0
    7.0042   -2.4417    0.0000 C   0  0  0  0  0  0  0  0  0  0  0  0
    7.9042   -2.1625    0.0000 O   0  0  0  0  0  0  0  0  0  0  0  0
  2  1  1  0
  3  1  1  0
  4  1  1  0
  5  4  1  0
  3  6  1  0
  3  7  1  6
  4  8  1  1
  9  5  2  0
 10  2  2  0
 11  8  2  0
 12  8  1  0
 14  9  1  0
 15 14  1  0
  7  2  1  0
  5  6  1  0
M  END
>  <ID>  (40) 


>  <MOLENAME>  (40) 
CLAVULANATE LITHIUM

>  <therap>  (40) 
beta-lactamase inhibitor; antibiotic

>  <ref>  (40) 
Antimicrob Agents Chemother 11:852 (1977); 12:406 (1977); Lancet 1:620 (1980)

>  <cas#>  (40) 
58001-44-8(acid)

>  <source>  (40) 
Strptomyces clavuligerus; BRL-14151

>  <status>  (40) 
USP

>  <tradename>  (40) 
nan

>  <SMILES>  (40) 
O=C(O)[C@H]1/C(=C/CO)O[C@@H]2CC(=O)N21

>  <standardized_failed>  (40) 
False

$$$$

     RDKit          2D

  9  9  0  0  0  0  0  0  0  0999 V2000
    2.2542   -0.7167    0.0000 C   0  0  0  0  0  0  0  0  0  0  0  0
    1.6042   -0.3417    0.0000 C   0  0  0  0  0  0  0  0  0  0  0  0
    2.9042   -0.3417    0.0000 O   0  0  0  0  0  0  0  0  0  0  0  0
    0.9500    0.7875    0.0000 N   0  0  0  0  0  0  0  0  0  0  0  0
    2.2542   -1.4667    0.0000 O   0  0  0  0  0  0  0  0  0  0  0  0
    1.6042    0.4083    0.0000 C   0  0  0  0  0  0  0  0  0  0  0  0
    0.9500   -0.7167    0.0000 C   0  0  0  0  0  0  0  0  0  0  0  0
    0.3042    0.4083    0.0000 C   0  0  0  0  0  0  0  0  0  0  0  0
    0.3042   -0.3417    0.0000 C   0  0  0  0  0  0  0  0  0  0  0  0
  2  1  1  0
  3  1  2  0
  4  6  1  0
  5  1  1  0
  6  2  2  0
  7  2  1  0
  8  9  1  0
  9  7  2  0
  8  4  2  0
M  END
>  <ID>  (41) 


>  <MOLENAME>  (41) 
NIACIN

>  <therap>  (41) 
antihyperlipidemic, vitamin (enzyme cofactor)

>  <ref>  (41) 
Ther. Adv. Cardiovasc. Dis. (2011), 5(5), 227-240; Curr. Vasc. Pharmacol. (2011), 9(4), 521-530; Expert Rev. Cardiovasc. Ther. (2010), 8(10), 1457-1467

>  <cas#>  (41) 
59-67-6

>  <source>  (41) 
widespread in the plant and fungal kingdom

>  <status>  (41) 
USP, INN, JAN

>  <tradename>  (41) 
NIASPAN

>  <SMILES>  (41) 
O=C(O)c1cnccc1

>  <standardized_failed>  (41) 
False

$$$$

     RDKit          2D

 45 47  0  0  0  0  0  0  0  0999 V2000
    7.9667   -4.0792    0.0000 C   0  0  0  0  0  0  0  0  0  0  0  0
    7.2500   -4.4917    0.0000 C   0  0  0  0  0  0  0  0  0  0  0  0
    6.5375   -3.2542    0.0000 C   0  0  0  0  0  0  0  0  0  0  0  0
    7.9667   -3.2542    0.0000 C   0  0  0  0  0  0  0  0  0  0  0  0
    2.2417   -2.4042    0.0000 C   0  0  0  0  0  0  0  0  0  0  0  0
    6.5375   -4.0792    0.0000 C   0  0  0  0  0  0  0  0  0  0  0  0
    7.2500   -2.8417    0.0000 O   0  0  0  0  0  0  0  0  0  0  0  0
    3.6750   -2.4167    0.0000 C   0  0  0  0  0  0  0  0  0  0  0  0
    2.9542   -2.8250    0.0000 C   0  0  0  0  0  0  0  0  0  0  0  0
    8.6875   -4.5000    0.0000 N   0  0  0  0  0  0  0  0  0  0  0  0
    3.6792   -1.5917    0.0000 O   0  0  0  0  0  0  0  0  0  0  0  0
    2.2500   -1.5792    0.0000 C   0  0  0  0  0  0  0  0  0  0  0  0
    2.9667   -1.1750    0.0000 C   0  0  0  0  0  0  0  0  0  0  0  0
    5.8250   -2.8417    0.0000 C   0  0  0  0  0  0  0  0  0  0  0  0
    8.6792   -5.3292    0.0000 C   0  0  0  0  0  0  0  0  0  0  0  0
    5.1042   -3.2542    0.0000 C   0  0  0  0  0  0  0  0  0  0  0  0
    4.3875   -2.8417    0.0000 O   0  0  0  0  0  0  0  0  0  0  0  0
    1.5125   -2.8125    0.0000 O   0  0  0  0  0  0  0  0  0  0  0  0
    1.4917   -3.6417    0.0000 C   0  0  0  0  0  0  0  0  0  0  0  0
    9.4000   -5.7417    0.0000 C   0  0  0  0  0  0  0  0  0  0  0  0
    5.8250   -4.4917    0.0000 C   0  0  0  0  0  0  0  0  0  0  0  0
   10.1125   -6.9792    0.0000 C   0  0  0  0  0  0  0  0  0  0  0  0
    9.4000   -6.5667    0.0000 C   0  0  0  0  0  0  0  0  0  0  0  0
    7.2500   -5.3167    0.0000 O   0  0  0  0  0  0  0  0  0  0  0  0
   10.8125   -8.2250    0.0000 C   0  0  0  0  0  0  0  0  0  0  0  0
    8.6875   -2.8417    0.0000 O   0  0  0  0  0  0  0  0  0  0  0  0
    5.1042   -4.0792    0.0000 C   0  0  0  0  0  0  0  0  0  0  0  0
   10.8292   -6.5667    0.0000 C   0  0  0  0  0  0  0  0  0  0  0  0
    7.9667   -5.7417    0.0000 O   0  0  0  0  0  0  0  0  0  0  0  0
   10.1042   -7.8042    0.0000 C   0  0  0  0  0  0  0  0  0  0  0  0
    2.2042   -4.0667    0.0000 O   0  0  0  0  0  0  0  0  0  0  0  0
   10.8042   -9.0500    0.0000 C   0  0  0  0  0  0  0  0  0  0  0  0
   10.1167   -5.3292    0.0000 C   0  0  0  0  0  0  0  0  0  0  0  0
   10.8292   -5.7417    0.0000 C   0  0  0  0  0  0  0  0  0  0  0  0
    2.9542   -3.6625    0.0000 O   0  0  0  0  0  0  0  0  0  0  0  0
    0.7667   -4.0417    0.0000 N   0  0  0  0  0  0  0  0  0  0  0  0
    1.5375   -1.1625    0.0000 O   0  0  0  0  0  0  0  0  0  0  0  0
   11.5542   -6.9875    0.0000 O   0  0  0  0  0  0  0  0  0  0  0  0
    2.4417   -0.4542    0.0000 C   0  0  0  0  0  0  0  0  0  0  0  0
    3.6625   -0.4542    0.0000 C   0  0  0  0  0  0  0  0  0  0  0  0
    5.8250   -2.0167    0.0000 C   0  0  0  0  0  0  0  0  0  0  0  0
    5.9792   -5.5292    0.0000 Na  0  0  0  0  0 15  0  0  0  0  0  0
   11.5250   -9.4625    0.0000 C   0  0  0  0  0  0  0  0  0  0  0  0
   10.0917   -9.4625    0.0000 C   0  0  0  0  0  0  0  0  0  0  0  0
    1.5417   -0.3417    0.0000 C   0  0  0  0  0  0  0  0  0  0  0  0
  2  1  2  0
  3  7  1  0
  4  1  1  0
  5  9  1  0
  6  2  1  0
  7  4  1  0
  8 17  1  1
  9  8  1  0
 10  1  1  0
 11  8  1  0
 12 13  1  0
 13 11  1  0
 14  3  2  0
 15 10  1  0
 16 14  1  0
 17 16  1  0
  5 18  1  6
 19 18  1  0
 20 15  1  0
 21  6  2  0
 22 23  2  0
 23 20  1  0
 24  2  1  0
 25 30  1  0
 26  4  2  0
 27 21  1  0
 28 34  2  0
 29 15  2  0
 30 22  1  0
 31 19  2  0
 32 25  2  0
 33 20  2  0
 34 33  1  0
  9 35  1  6
 36 19  1  0
 12 37  1  1
 38 28  1  0
 39 13  1  0
 40 13  1  0
 41 14  1  0
 43 32  1  0
 44 32  1  0
 45 37  1  0
  3  6  1  0
 27 16  2  0
 28 22  1  0
  5 12  1  0
M  CHG  2  24  -1  42   1
M  END
>  <ID>  (42) 


>  <MOLENAME>  (42) 
NOVOBIOCIN SODIUM

>  <therap>  (42) 
antibacterial

>  <ref>  (42) 
Pharmacol. Ther. (2003), 99(2), 167-181; Antibiotics 1979), 5(1), 214-34; J. Am. Chem. Soc. (1955), 77, 6404-5

>  <cas#>  (42) 
1476-53-5, 303-81-1 [novobiocin]

>  <source>  (42) 
Streptomyces niveus and S griseus

>  <status>  (42) 
USP

>  <tradename>  (42) 
ALBAMYCIN

>  <SMILES>  (42) 
CO[C@@H]1[C@@H](OC(N)=O)[C@@H](O)[C@H](Oc2ccc3c(O)c(NC(=O)c4ccc(O)c(CC=C(C)C)c4)c(=O)oc3c2C)OC1(C)C

>  <standardized_failed>  (42) 
False

$$$$

     RDKit          2D

 23 23  0  0  0  0  0  0  0  0999 V2000
    6.3750   -4.2542    0.0000 N   0  0  0  0  0  0  0  0  0  0  0  0
    5.6250   -4.2542    0.0000 C   0  0  0  0  0  0  0  0  0  0  0  0
    5.2500   -4.9042    0.0000 C   0  0  0  0  0  0  0  0  0  0  0  0
    4.5000   -4.9042    0.0000 C   0  0  0  0  0  0  0  0  0  0  0  0
    4.1250   -4.2542    0.0000 C   0  0  0  0  0  0  0  0  0  0  0  0
    4.1250   -5.5500    0.0000 C   0  0  0  0  0  0  0  0  0  0  0  0
    3.0000   -4.9042    0.0000 C   0  0  0  0  0  0  0  0  0  0  0  0
    5.6250   -5.5500    0.0000 O   0  0  0  0  0  0  0  0  0  0  0  0
    3.3750   -5.5500    0.0000 C   0  0  0  0  0  0  0  0  0  0  0  0
    3.3750   -4.2542    0.0000 C   0  0  0  0  0  0  0  0  0  0  0  0
    7.2292   -3.5292    0.0000 Cl  0  0  0  0  0  0  0  0  0  0  0  0
    6.7500   -4.9000    0.0000 C   0  0  0  0  0  0  0  0  0  0  0  0
    7.8750   -5.5500    0.0000 C   0  0  0  0  0  0  0  0  0  0  0  0
    8.6250   -5.5500    0.0000 C   0  0  0  0  0  0  0  0  0  0  0  0
    7.5000   -4.9000    0.0000 C   0  0  0  0  0  0  0  0  0  0  0  0
    2.2500   -4.9042    0.0000 O   0  0  0  0  0  0  0  0  0  0  0  0
    5.2500   -3.6125    0.0000 C   0  0  0  0  0  0  0  0  0  0  0  0
    9.0000   -4.9000    0.0000 C   0  0  0  0  0  0  0  0  0  0  0  0
    9.0000   -6.1917    0.0000 C   0  0  0  0  0  0  0  0  0  0  0  0
    6.3750   -5.5500    0.0000 C   0  0  0  0  0  0  0  0  0  0  0  0
    9.7500   -6.1917    0.0000 C   0  0  0  0  0  0  0  0  0  0  0  0
    9.7500   -4.9000    0.0000 C   0  0  0  0  0  0  0  0  0  0  0  0
   10.1250   -5.5500    0.0000 C   0  0  0  0  0  0  0  0  0  0  0  0
  2  1  1  0
  3  2  1  0
  4  3  1  0
  5  4  2  0
  6  4  1  0
  7  9  1  0
  8  3  1  0
  9  6  2  0
 10  5  1  0
 12  1  1  0
 13 15  1  0
 14 13  1  0
 15 12  1  0
 16  7  1  0
 17  2  1  0
 18 14  2  0
 19 14  1  0
 20 12  1  0
 21 19  2  0
 22 18  1  0
 23 22  2  0
  7 10  2  0
 21 23  1  0
M  END
>  <ID>  (43) 


>  <MOLENAME>  (43) 
NYLIDRIN HYDROCHLORIDE

>  <therap>  (43) 
vasodilator (peripheral)

>  <ref>  (43) 
J. Pharm. Pharmacol. (1970), 22(2), 101-3; J. Pharmacol. Exp. Ther. (1957), 120, 512-27; Am. J. Med. Sci. (1953), 226, 164-71

>  <cas#>  (43) 
849-55-8

>  <source>  (43) 
synthetic

>  <status>  (43) 
USP-XII, INN, BAN

>  <tradename>  (43) 
nan

>  <SMILES>  (43) 
CC(CCc1ccccc1)NC(C)C(O)c1ccc(O)cc1

>  <standardized_failed>  (43) 
False

$$$$

     RDKit          2D

 34 36  0  0  0  0  0  0  0  0999 V2000
    5.6917   -2.4292    0.0000 N   0  0  0  0  0  0  0  0  0  0  0  0
    4.8792   -2.5792    0.0000 C   0  0  0  0  0  0  0  0  0  0  0  0
    5.0167   -3.3917    0.0000 C   0  0  0  0  0  0  0  0  0  0  0  0
    5.8292   -3.2417    0.0000 C   0  0  0  0  0  0  0  0  0  0  0  0
    9.1375   -1.4042    0.0000 C   0  0  0  0  0  0  0  0  0  0  0  0
    6.3167   -1.9042    0.0000 C   0  0  0  0  0  0  0  0  0  0  0  0
    3.5917   -5.4208    0.0000 C   0  0  0  0  0  0  0  0  0  0  0  0
    9.0750   -0.5917    0.0000 N   0  0  0  0  0  0  0  0  0  0  0  0
    9.9292   -1.6042    0.0000 N   0  0  0  0  0  0  0  0  0  0  0  0
   10.3667   -0.9042    0.0000 N   0  0  0  0  0  0  0  0  0  0  0  0
    4.4167   -5.4958    0.0000 C   0  0  0  0  0  0  0  0  0  0  0  0
    3.0500   -6.0458    0.0000 N   0  0  0  0  0  0  0  0  0  0  0  0
    9.8417   -0.2792    0.0000 N   0  0  0  0  0  0  0  0  0  0  0  0
    4.5417   -4.0667    0.0000 N   0  0  0  0  0  0  0  0  0  0  0  0
    4.8917   -4.8167    0.0000 C   0  0  0  0  0  0  0  0  0  0  0  0
    6.6042   -3.5292    0.0000 S   0  0  0  0  0  0  0  0  0  0  0  0
    7.0917   -2.1917    0.0000 C   0  0  0  0  0  0  0  0  0  0  0  0
    2.2917   -5.7250    0.0000 C   0  0  0  0  0  0  0  0  0  0  0  0
    3.1708   -4.7167    0.0000 C   0  0  0  0  0  0  0  0  0  0  0  0
    2.3667   -4.9000    0.0000 S   0  0  0  0  0  0  0  0  0  0  0  0
    6.1792   -1.0917    0.0000 C   0  0  0  0  0  0  0  0  0  0  0  0
    8.5042   -1.9417    0.0000 S   0  0  0  0  0  0  0  0  0  0  0  0
    7.2375   -3.0042    0.0000 C   0  0  0  0  0  0  0  0  0  0  0  0
    4.7625   -6.2417    0.0000 N   0  0  0  0  0  0  0  0  0  0  0  0
    4.1917   -2.1042    0.0000 O   0  0  0  0  0  0  0  0  0  0  0  0
    7.7292   -1.6542    0.0000 C   0  0  0  0  0  0  0  0  0  0  0  0
    5.7167   -4.8917    0.0000 O   0  0  0  0  0  0  0  0  0  0  0  0
    5.4042   -0.8167    0.0000 O   0  0  0  0  0  0  0  0  0  0  0  0
    1.5833   -6.1458    0.0000 N   0  0  0  0  0  0  0  0  0  0  0  0
    8.3750   -0.1542    0.0000 C   0  0  0  0  0  0  0  0  0  0  0  0
    6.8042   -0.5667    0.0000 O   0  0  0  0  0  0  0  0  0  0  0  0
    4.2875   -6.9167    0.0000 O   0  0  0  0  0  0  0  0  0  0  0  0
    8.8542   -4.2417    0.0000 Cl  0  0  0  0  0  0  0  0  0  0  0  0
    3.4667   -6.8458    0.0000 C   0  0  0  0  0  0  0  0  0  0  0  0
  2  1  1  0
  3  4  1  0
  4  1  1  0
  5 22  1  0
  6  1  1  0
  7 11  1  0
  8  5  1  0
  9  5  2  0
 10  9  1  0
 11 15  1  0
 12  7  1  0
 13  8  1  0
 14  3  1  0
 15 14  1  0
 16  4  1  0
 17  6  2  0
 18 12  2  0
 19  7  2  0
 20 19  1  0
 21  6  1  0
 22 26  1  0
 23 17  1  0
 24 11  2  0
 25  2  2  0
 26 17  1  0
 27 15  2  0
 28 21  2  0
 29 18  1  0
 30  8  1  0
 31 21  1  0
 32 24  1  0
 34 32  1  0
  3  2  1  0
 16 23  1  0
 10 13  2  0
 18 20  1  0
M  END
>  <ID>  (44) 


>  <MOLENAME>  (44) 
CEFMENOXIME HYDROCHLORIDE

>  <therap>  (44) 
antibacterial

>  <ref>  (44) 
Antimicro Agents Chemother 19:56, 20:171 (1981); Arzneim Forsch 33:269 (1983)

>  <cas#>  (44) 
75738-58-8

>  <source>  (44) 
synthetic; Abbott-50192

>  <status>  (44) 
USP, INN, JAN

>  <tradename>  (44) 
CEFMAX

>  <SMILES>  (44) 
CO/N=C(/C(=O)NC1C(=O)N2C(C(=O)O)=C(CSc3nnnn3C)CSC12)c1csc(N)n1

>  <standardized_failed>  (44) 
False

$$$$

     RDKit          2D

 12 12  0  0  0  0  0  0  0  0999 V2000
    3.5292   -4.1875    0.0000 C   0  0  0  0  0  0  0  0  0  0  0  0
    3.5292   -5.0125    0.0000 C   0  0  0  0  0  0  0  0  0  0  0  0
    4.2417   -3.7708    0.0000 C   0  0  0  0  0  0  0  0  0  0  0  0
    4.2417   -5.4250    0.0000 C   0  0  0  0  0  0  0  0  0  0  0  0
    6.3875   -4.1750    0.0000 O   0  0  0  0  0  0  0  0  0  0  0  0
    4.9583   -4.1833    0.0000 C   0  0  0  0  0  0  0  0  0  0  0  0
    5.6708   -3.7667    0.0000 C   0  0  0  0  0  0  0  0  0  0  0  0
    4.9583   -5.0125    0.0000 C   0  0  0  0  0  0  0  0  0  0  0  0
    2.8167   -3.7750    0.0000 O   0  0  0  0  0  0  0  0  0  0  0  0
    2.8125   -5.4250    0.0000 O   0  0  0  0  0  0  0  0  0  0  0  0
    2.8167   -2.9500    0.0000 C   0  0  0  0  0  0  0  0  0  0  0  0
    2.1000   -2.5375    0.0000 C   0  0  0  0  0  0  0  0  0  0  0  0
  2  1  2  0
  3  1  1  0
  4  2  1  0
  5  7  2  0
  6  3  2  0
  7  6  1  0
  8  4  2  0
  9  1  1  0
 10  2  1  0
 11  9  1  0
 12 11  1  0
  6  8  1  0
M  END
>  <ID>  (45) 


>  <MOLENAME>  (45) 
ETHYL VANILLIN

>  <therap>  (45) 
flavoring agent

>  <ref>  (45) 
J Am Pharmac Assoc 29:425 (1940); Food Cosmet Toxicol 5:141 (1967)

>  <cas#>  (45) 
121-32-4

>  <source>  (45) 
nan

>  <status>  (45) 
NF

>  <tradename>  (45) 
nan

>  <SMILES>  (45) 
CCOc1c(O)ccc(C=O)c1

>  <standardized_failed>  (45) 
False

$$$$

     RDKit          2D

 36 39  0  0  0  0  0  0  0  0999 V2000
    3.1417   -2.2375    0.0000 N   0  0  0  0  0  0  0  0  0  0  0  0
    8.2375   -0.9333    0.0000 S   0  0  0  0  0  0  0  0  0  0  0  0
    3.8542   -2.6542    0.0000 C   0  0  0  0  0  0  0  0  0  0  0  0
    3.1417   -3.8875    0.0000 S   0  0  0  0  0  0  0  0  0  0  0  0
    4.5625   -2.2417    0.0000 C   0  0  0  0  0  0  0  0  0  0  0  0
    2.4333   -2.6542    0.0000 C   0  0  0  0  0  0  0  0  0  0  0  0
    3.8542   -3.4750    0.0000 C   0  0  0  0  0  0  0  0  0  0  0  0
    2.4292   -3.4792    0.0000 C   0  0  0  0  0  0  0  0  0  0  0  0
    3.1417   -1.4167    0.0000 C   0  0  0  0  0  0  0  0  0  0  0  0
    5.2750   -2.6500    0.0000 C   0  0  0  0  0  0  0  0  0  0  0  0
    5.9875   -2.2333    0.0000 S   0  0  0  0  0  0  0  0  0  0  0  0
    4.5667    0.2333    0.0000 N   0  0  0  0  0  0  0  0  0  0  0  0
    8.2375   -0.2458    0.0000 O   0  0  0  0  0  0  0  0  0  0  0  0
    8.2292   -1.6167    0.0000 O   0  0  0  0  0  0  0  0  0  0  0  0
    8.8333   -1.2750    0.0000 C   0  0  0  0  0  0  0  0  0  0  0  0
    3.8542   -1.0042    0.0000 C   0  0  0  0  0  0  0  0  0  0  0  0
    3.8542   -0.1792    0.0000 C   0  0  0  0  0  0  0  0  0  0  0  0
    4.5667   -3.8875    0.0000 C   0  0  0  0  0  0  0  0  0  0  0  0
    5.9875   -1.4083    0.0000 O   0  0  0  0  0  0  0  0  0  0  0  0
    7.4750   -0.9333    0.0000 O   0  0  0  0  0  0  0  0  0  0  0  0
    5.2792   -3.4750    0.0000 C   0  0  0  0  0  0  0  0  0  0  0  0
    5.2792   -0.1792    0.0000 C   0  0  0  0  0  0  0  0  0  0  0  0
    4.5625    1.0500    0.0000 C   0  0  0  0  0  0  0  0  0  0  0  0
    1.7250   -2.2417    0.0000 C   0  0  0  0  0  0  0  0  0  0  0  0
    6.7042   -2.6458    0.0000 C   0  0  0  0  0  0  0  0  0  0  0  0
    1.7208   -3.8875    0.0000 C   0  0  0  0  0  0  0  0  0  0  0  0
    8.8333   -1.9667    0.0000 C   0  0  0  0  0  0  0  0  0  0  0  0
    9.4250   -0.9292    0.0000 C   0  0  0  0  0  0  0  0  0  0  0  0
    3.1375    0.2250    0.0000 C   0  0  0  0  0  0  0  0  0  0  0  0
    3.8500    1.4625    0.0000 C   0  0  0  0  0  0  0  0  0  0  0  0
    1.0083   -2.6500    0.0000 C   0  0  0  0  0  0  0  0  0  0  0  0
    1.0125   -3.4792    0.0000 C   0  0  0  0  0  0  0  0  0  0  0  0
   10.0250   -1.2750    0.0000 C   0  0  0  0  0  0  0  0  0  0  0  0
    9.4250   -2.3083    0.0000 C   0  0  0  0  0  0  0  0  0  0  0  0
    3.1375    1.0500    0.0000 C   0  0  0  0  0  0  0  0  0  0  0  0
   10.0250   -1.9667    0.0000 C   0  0  0  0  0  0  0  0  0  0  0  0
  3  1  1  0
  4  7  1  0
  5  3  2  0
  6  1  1  0
  7  3  1  0
  8  6  2  0
  9  1  1  0
 10  5  1  0
 11 10  1  0
 12 17  1  0
 13  2  2  0
 14  2  2  0
 15  2  1  0
 16  9  1  0
 17 16  1  0
 18  7  2  0
 19 11  2  0
 20  2  1  0
 21 18  1  0
 22 12  1  0
 23 12  1  0
 24  6  1  0
 25 11  1  0
 26  8  1  0
 27 15  2  0
 28 15  1  0
 29 17  1  0
 30 35  1  0
 31 24  2  0
 32 26  2  0
 33 28  2  0
 34 27  1  0
 35 29  1  0
 36 33  1  0
  4  8  1  0
 10 21  2  0
 32 31  1  0
 30 23  1  0
 36 34  2  0
M  END
>  <ID>  (46) 


>  <MOLENAME>  (46) 
MESORIDAZINE BESYLATE

>  <therap>  (46) 
antpsychotic

>  <ref>  (46) 
J. Clin. Psychiatry (1981), 42(12), 463-9; Dis. Nerv. Syst. (1972), 33(8), 529-34; J. Clin. Pharmacol. New Drugs (1972), 12(8), 349-55

>  <cas#>  (46) 
32672-69-8

>  <source>  (46) 
synthetic

>  <status>  (46) 
USP, INN, BAN

>  <tradename>  (46) 
SERENTIL

>  <SMILES>  (46) 
CN1CCCCC1CCN1c2ccccc2Sc2ccc([S+](C)[O-])cc21

>  <standardized_failed>  (46) 
False

$$$$

     RDKit          2D

 17 18  0  0  0  0  0  0  0  0999 V2000
    2.1125   -4.4292    0.0000 C   0  0  0  0  0  0  0  0  0  0  0  0
    1.7375   -5.0792    0.0000 C   0  0  0  0  0  0  0  0  0  0  0  0
    1.7375   -3.7792    0.0000 C   0  0  0  0  0  0  0  0  0  0  0  0
    2.8625   -4.4292    0.0000 C   0  0  0  0  0  0  0  0  0  0  0  0
    2.1125   -3.1292    0.0000 C   0  0  0  0  0  0  0  0  0  0  0  0
    2.1125   -5.7250    0.0000 O   0  0  0  0  0  0  0  0  0  0  0  0
    0.9875   -5.0792    0.0000 C   0  0  0  0  0  0  0  0  0  0  0  0
    2.8625   -3.1292    0.0000 C   0  0  0  0  0  0  0  0  0  0  0  0
    0.9875   -3.7792    0.0000 O   0  0  0  0  0  0  0  0  0  0  0  0
    3.2375   -3.7792    0.0000 C   0  0  0  0  0  0  0  0  0  0  0  0
    3.2375   -2.4667    0.0000 O   0  0  0  0  0  0  0  0  0  0  0  0
    0.6125   -5.7250    0.0000 C   0  0  0  0  0  0  0  0  0  0  0  0
    0.6125   -4.4292    0.0000 C   0  0  0  0  0  0  0  0  0  0  0  0
    2.8542   -1.8167    0.0000 C   0  0  0  0  0  0  0  0  0  0  0  0
   -0.1375   -4.4292    0.0000 C   0  0  0  0  0  0  0  0  0  0  0  0
   -0.1375   -5.7250    0.0000 C   0  0  0  0  0  0  0  0  0  0  0  0
   -0.5125   -5.0792    0.0000 C   0  0  0  0  0  0  0  0  0  0  0  0
  2  1  1  0
  3  1  2  0
  4  1  1  0
  5  3  1  0
  6  2  2  0
  7  2  1  0
  8 10  1  0
  9  3  1  0
 10  4  2  0
 11  8  1  0
 12  7  2  0
 13  7  1  0
 14 11  1  0
 15 13  2  0
 16 12  1  0
 17 15  1  0
  5  8  2  0
 16 17  2  0
M  END
>  <ID>  (47) 


>  <MOLENAME>  (47) 
OXYBENZONE

>  <therap>  (47) 
ultraviolet screen

>  <ref>  (47) 
Cosmet. Sci. Technol. Ser. (2006), 30, 135-151; Skin Pharmacol. Physiol. (2005), 18(6), 253-62; J. Am. Acad. Dermatol. (1983), 9(3), 354-60

>  <cas#>  (47) 
131-57-7

>  <source>  (47) 
synthetic; NSC-7778

>  <status>  (47) 
USP, INN

>  <tradename>  (47) 
UVINUL M40

>  <SMILES>  (47) 
COc1cc(O)c(C(=O)c2ccccc2)cc1

>  <standardized_failed>  (47) 
False

$$$$

     RDKit          2D

 50 53  0  0  0  0  0  0  0  0999 V2000
   -2.3917   -0.7875    0.0000 N   0  0  0  0  0  0  0  0  0  0  0  0
    0.3625   -0.9292    0.0000 C   0  0  0  0  0  0  0  0  0  0  0  0
   -3.1083   -1.2000    0.0000 C   0  0  0  0  0  0  0  0  0  0  0  0
    1.0750   -1.3417    0.0000 N   0  0  0  0  0  0  0  0  0  0  0  0
    2.5000   -1.3417    0.0000 C   0  0  0  0  0  0  0  0  0  0  0  0
   -1.7792   -1.3417    0.0000 C   0  0  0  0  0  0  0  0  0  0  0  0
   -2.9375   -2.0125    0.0000 S   0  0  0  0  0  0  0  0  0  0  0  0
    1.7875   -0.9292    0.0000 C   0  0  0  0  0  0  0  0  0  0  0  0
    6.7750    0.3083    0.0000 C   0  0  0  0  0  0  0  0  0  0  0  0
   -0.3500   -1.3417    0.0000 N   0  0  0  0  0  0  0  0  0  0  0  0
    3.2125   -0.9292    0.0000 N   0  0  0  0  0  0  0  0  0  0  0  0
    9.9000   -0.9917    0.0000 N   0  0  0  0  0  0  0  0  0  0  0  0
    6.0625   -0.1042    0.0000 N   0  0  0  0  0  0  0  0  0  0  0  0
    8.9125   -0.1000    0.0000 C   0  0  0  0  0  0  0  0  0  0  0  0
   -2.1125   -2.0958    0.0000 C   0  0  0  0  0  0  0  0  0  0  0  0
    5.3500    0.3083    0.0000 C   0  0  0  0  0  0  0  0  0  0  0  0
    9.6250    0.3083    0.0000 S   0  0  0  0  0  0  0  0  0  0  0  0
   10.2333   -0.2417    0.0000 C   0  0  0  0  0  0  0  0  0  0  0  0
   -1.0625   -0.9292    0.0000 C   0  0  0  0  0  0  0  0  0  0  0  0
    4.6375   -0.9292    0.0000 C   0  0  0  0  0  0  0  0  0  0  0  0
    3.9250   -1.3417    0.0000 C   0  0  0  0  0  0  0  0  0  0  0  0
    9.0833   -0.9083    0.0000 C   0  0  0  0  0  0  0  0  0  0  0  0
    4.6375   -0.1042    0.0000 C   0  0  0  0  0  0  0  0  0  0  0  0
    0.3625   -0.1042    0.0000 O   0  0  0  0  0  0  0  0  0  0  0  0
    2.5000   -2.1667    0.0000 O   0  0  0  0  0  0  0  0  0  0  0  0
    6.7750    1.1333    0.0000 O   0  0  0  0  0  0  0  0  0  0  0  0
    5.3500    1.1333    0.0000 C   0  0  0  0  0  0  0  0  0  0  0  0
    7.4875   -0.1042    0.0000 O   0  0  0  0  0  0  0  0  0  0  0  0
   -3.8167   -0.7875    0.0000 C   0  0  0  0  0  0  0  0  0  0  0  0
    8.2000    0.3083    0.0000 C   0  0  0  0  0  0  0  0  0  0  0  0
    3.9250   -2.1667    0.0000 C   0  0  0  0  0  0  0  0  0  0  0  0
    1.7875   -0.1042    0.0000 C   0  0  0  0  0  0  0  0  0  0  0  0
    4.6333    1.5458    0.0000 C   0  0  0  0  0  0  0  0  0  0  0  0
    3.9208    0.3083    0.0000 O   0  0  0  0  0  0  0  0  0  0  0  0
    4.6375   -2.5792    0.0000 C   0  0  0  0  0  0  0  0  0  0  0  0
   -0.3500   -2.1667    0.0000 C   0  0  0  0  0  0  0  0  0  0  0  0
   -3.8167    0.0375    0.0000 C   0  0  0  0  0  0  0  0  0  0  0  0
   -4.5292   -1.2000    0.0000 C   0  0  0  0  0  0  0  0  0  0  0  0
    2.5000    0.3083    0.0000 C   0  0  0  0  0  0  0  0  0  0  0  0
    1.0708    0.3083    0.0000 C   0  0  0  0  0  0  0  0  0  0  0  0
    4.6375    2.3750    0.0000 C   0  0  0  0  0  0  0  0  0  0  0  0
    3.9250    1.1375    0.0000 C   0  0  0  0  0  0  0  0  0  0  0  0
    5.3458   -2.1667    0.0000 C   0  0  0  0  0  0  0  0  0  0  0  0
    4.6333   -3.4042    0.0000 C   0  0  0  0  0  0  0  0  0  0  0  0
    3.2125    1.5458    0.0000 C   0  0  0  0  0  0  0  0  0  0  0  0
    6.0583   -2.5750    0.0000 C   0  0  0  0  0  0  0  0  0  0  0  0
    5.3458   -3.8167    0.0000 C   0  0  0  0  0  0  0  0  0  0  0  0
    3.9250    2.7875    0.0000 C   0  0  0  0  0  0  0  0  0  0  0  0
    6.0625   -3.4042    0.0000 C   0  0  0  0  0  0  0  0  0  0  0  0
    3.2083    2.3750    0.0000 C   0  0  0  0  0  0  0  0  0  0  0  0
  2 10  1  0
  3  1  2  0
  4  2  1  0
  5  8  1  0
  6  1  1  0
  7  3  1  0
  8  4  1  1
  9 13  1  0
 10 19  1  0
 11  5  1  0
 12 22  1  0
 13 16  1  0
 14 30  1  0
 15  6  2  0
 16 23  1  0
 17 14  1  0
 18 17  1  0
 19  6  1  0
 21 20  1  6
 21 11  1  0
 22 14  2  0
 23 20  1  0
 24  2  2  0
 25  5  2  0
 26  9  2  0
 16 27  1  6
 28  9  1  0
 29  3  1  0
 30 28  1  0
 21 31  1  0
  8 32  1  0
 33 27  1  0
 23 34  1  6
 35 31  1  0
 36 10  1  0
 37 29  1  0
 38 29  1  0
 39 32  1  0
 40 32  1  0
 41 33  2  0
 42 33  1  0
 43 35  2  0
 44 35  1  0
 45 42  2  0
 46 43  1  0
 47 44  2  0
 48 41  1  0
 49 46  2  0
 50 45  1  0
 15  7  1  0
 49 47  1  0
 50 48  2  0
 18 12  2  0
M  END
>  <ID>  (48) 


>  <MOLENAME>  (48) 
RITONAVIR

>  <therap>  (48) 
antiviral

>  <ref>  (48) 
Drugs 52:541 (1996); JAMA 283:492 (2000); N Engl J Med 346:2039 (2002)

>  <cas#>  (48) 
155213-67-5

>  <source>  (48) 
synthetic; Abbott-84538

>  <status>  (48) 
USP, INN, BAN

>  <tradename>  (48) 
NORVIR

>  <SMILES>  (48) 
CC(C)c1nc(CN(C)C(=O)N[C@H](C(=O)N[C@@H](Cc2ccccc2)C[C@H](O)[C@H](Cc2ccccc2)NC(=O)OCc2cncs2)C(C)C)cs1

>  <standardized_failed>  (48) 
False

$$$$

     RDKit          2D

 24 26  0  0  0  0  0  0  0  0999 V2000
    3.8375   -1.7417    0.0000 N   0  0  0  0  0  0  0  0  0  0  0  0
    3.2792   -2.2417    0.0000 N   0  0  0  0  0  0  0  0  0  0  0  0
    3.5875   -2.9167    0.0000 C   0  0  0  0  0  0  0  0  0  0  0  0
    4.4792   -2.1125    0.0000 C   0  0  0  0  0  0  0  0  0  0  0  0
    4.3250   -2.8542    0.0000 C   0  0  0  0  0  0  0  0  0  0  0  0
    3.9417   -1.0000    0.0000 C   0  0  0  0  0  0  0  0  0  0  0  0
    2.5542   -2.1167    0.0000 C   0  0  0  0  0  0  0  0  0  0  0  0
    3.2042   -3.5792    0.0000 O   0  0  0  0  0  0  0  0  0  0  0  0
    5.1750   -1.8000    0.0000 O   0  0  0  0  0  0  0  0  0  0  0  0
    4.5917   -0.6250    0.0000 C   0  0  0  0  0  0  0  0  0  0  0  0
    3.3000   -0.6250    0.0000 C   0  0  0  0  0  0  0  0  0  0  0  0
    4.8125   -3.4167    0.0000 C   0  0  0  0  0  0  0  0  0  0  0  0
    3.9417    0.5000    0.0000 C   0  0  0  0  0  0  0  0  0  0  0  0
    3.3000    0.1250    0.0000 C   0  0  0  0  0  0  0  0  0  0  0  0
    4.5917    0.1250    0.0000 C   0  0  0  0  0  0  0  0  0  0  0  0
    3.9417    1.2500    0.0000 O   0  0  0  0  0  0  0  0  0  0  0  0
    2.2917   -1.4167    0.0000 C   0  0  0  0  0  0  0  0  0  0  0  0
    2.0667   -2.6917    0.0000 C   0  0  0  0  0  0  0  0  0  0  0  0
    4.5667   -4.1250    0.0000 C   0  0  0  0  0  0  0  0  0  0  0  0
    5.0542   -4.6917    0.0000 C   0  0  0  0  0  0  0  0  0  0  0  0
    4.8167   -5.4000    0.0000 C   0  0  0  0  0  0  0  0  0  0  0  0
    1.3417   -2.5667    0.0000 C   0  0  0  0  0  0  0  0  0  0  0  0
    1.5542   -1.2917    0.0000 C   0  0  0  0  0  0  0  0  0  0  0  0
    1.0792   -1.8667    0.0000 C   0  0  0  0  0  0  0  0  0  0  0  0
  2  1  1  0
  3  2  1  0
  4  1  1  0
  5  4  1  0
  6  1  1  0
  7  2  1  0
  8  3  2  0
  9  4  2  0
 10  6  2  0
 11  6  1  0
 12  5  1  0
 13 14  1  0
 14 11  2  0
 15 10  1  0
 16 13  1  0
 17  7  2  0
 18  7  1  0
 19 12  1  0
 20 19  1  0
 21 20  1  0
 22 18  2  0
 23 17  1  0
 24 22  1  0
  5  3  1  0
 13 15  2  0
 24 23  2  0
M  END
>  <ID>  (49) 


>  <MOLENAME>  (49) 
OXYPHENBUTAZONE

>  <therap>  (49) 
antiinflammatory

>  <ref>  (49) 
Arch. Intern. Med. (1976), 136(9), 1023-8; Eur. Cytokine Network (2005), 16(2), 144-151; Biochem. Pharmacol. (1964), 13, 1305-17

>  <cas#>  (49) 
7081-38-1, 129-20-4 [anhydrous]

>  <source>  (49) 
synthetic

>  <status>  (49) 
USP-XXIII, INN, BAN

>  <tradename>  (49) 
TANDEARIL

>  <SMILES>  (49) 
CCCCC1C(=O)N(c2ccccc2)N(c2ccc(O)cc2)C1=O

>  <standardized_failed>  (49) 
False

$$$$

     RDKit          2D

 21 22  0  0  0  0  0  0  0  0999 V2000
    5.9500   -1.3542    0.0000 C   0  0  0  0  0  0  0  0  0  0  0  0
    5.3667   -0.8917    0.0000 C   0  0  0  0  0  0  0  0  0  0  0  0
    6.6792   -1.1917    0.0000 C   0  0  0  0  0  0  0  0  0  0  0  0
    5.7875   -2.0917    0.0000 C   0  0  0  0  0  0  0  0  0  0  0  0
    7.0042   -0.5167    0.0000 C   0  0  0  0  0  0  0  0  0  0  0  0
    5.3667   -0.1417    0.0000 C   0  0  0  0  0  0  0  0  0  0  0  0
    5.9500    0.3208    0.0000 C   0  0  0  0  0  0  0  0  0  0  0  0
    6.6792    0.1583    0.0000 C   0  0  0  0  0  0  0  0  0  0  0  0
    6.7500   -3.8292    0.0000 N   0  0  0  0  0  0  0  0  0  0  0  0
    8.9292   -2.5542    0.0000 Cl  0  0  0  0  0  0  0  0  0  0  0  0
    4.7167   -1.2667    0.0000 C   0  0  0  0  0  0  0  0  0  0  0  0
    7.1042   -1.8042    0.0000 C   0  0  0  0  0  0  0  0  0  0  0  0
    6.3417   -2.6042    0.0000 C   0  0  0  0  0  0  0  0  0  0  0  0
    7.7542   -0.4542    0.0000 C   0  0  0  0  0  0  0  0  0  0  0  0
    4.7167    0.2333    0.0000 C   0  0  0  0  0  0  0  0  0  0  0  0
    6.1917   -3.3292    0.0000 C   0  0  0  0  0  0  0  0  0  0  0  0
    6.6000   -4.5667    0.0000 C   0  0  0  0  0  0  0  0  0  0  0  0
    4.0667   -0.8917    0.0000 C   0  0  0  0  0  0  0  0  0  0  0  0
    7.8542   -1.7417    0.0000 C   0  0  0  0  0  0  0  0  0  0  0  0
    4.0667   -0.1417    0.0000 C   0  0  0  0  0  0  0  0  0  0  0  0
    8.1792   -1.0667    0.0000 C   0  0  0  0  0  0  0  0  0  0  0  0
  2  1  1  0
  3  1  1  0
  4  1  2  0
  5  3  2  0
  6  2  2  0
  7  6  1  0
  8  5  1  0
  9 16  1  0
 11  2  1  0
 12  3  1  0
 13  4  1  0
 14  5  1  0
 15  6  1  0
 16 13  1  0
 17  9  1  0
 18 11  2  0
 19 12  2  0
 20 18  1  0
 21 19  1  0
  7  8  1  0
 14 21  2  0
 20 15  2  0
M  END
>  <ID>  (50) 


>  <MOLENAME>  (50) 
NORTRIPTYLINE HYDROCHLORIDE

>  <therap>  (50) 
antidepressant

>  <ref>  (50) 
Lancet 1:287 (1984); Eur Urol 12:109 (1986)

>  <cas#>  (50) 
894-71-3, 72-69-5 [nortriptyline]

>  <source>  (50) 
synthetic; 38489

>  <status>  (50) 
USP, INN, BAN, JAN

>  <tradename>  (50) 
AVENTYL

>  <SMILES>  (50) 
CNCCC=C1c2c(cccc2)CCc2c1cccc2

>  <standardized_failed>  (50) 
False

$$$$

     RDKit          2D

 15 16  0  0  0  0  0  0  0  0999 V2000
    6.9542   -0.4583    0.0000 N   0  0  0  0  0  0  0  0  0  0  0  0
    6.1458   -0.6333    0.0000 C   0  0  0  0  0  0  0  0  0  0  0  0
    6.0667   -1.4542    0.0000 C   0  0  0  0  0  0  0  0  0  0  0  0
    7.3667   -1.1750    0.0000 C   0  0  0  0  0  0  0  0  0  0  0  0
    6.8167   -1.7875    0.0000 C   0  0  0  0  0  0  0  0  0  0  0  0
    5.5292   -0.0875    0.0000 O   0  0  0  0  0  0  0  0  0  0  0  0
    8.1875   -1.2583    0.0000 O   0  0  0  0  0  0  0  0  0  0  0  0
    5.3542   -1.8708    0.0000 C   0  0  0  0  0  0  0  0  0  0  0  0
    7.2875    0.2958    0.0000 C   0  0  0  0  0  0  0  0  0  0  0  0
    6.0625   -2.2792    0.0000 C   0  0  0  0  0  0  0  0  0  0  0  0
    4.6375   -1.4583    0.0000 C   0  0  0  0  0  0  0  0  0  0  0  0
    5.3542   -2.7000    0.0000 C   0  0  0  0  0  0  0  0  0  0  0  0
    3.9250   -1.8750    0.0000 C   0  0  0  0  0  0  0  0  0  0  0  0
    4.6375   -3.1125    0.0000 C   0  0  0  0  0  0  0  0  0  0  0  0
    3.9250   -2.7000    0.0000 C   0  0  0  0  0  0  0  0  0  0  0  0
  2  1  1  0
  3  2  1  0
  4  1  1  0
  5  4  1  0
  6  2  2  0
  7  4  2  0
  8  3  1  0
  9  1  1  0
 10  3  1  0
 11  8  2  0
 12  8  1  0
 13 11  1  0
 14 12  2  0
 15 13  2  0
  5  3  1  0
 14 15  1  0
M  END
>  <ID>  (51) 


>  <MOLENAME>  (51) 
METHSUXIMIDE

>  <therap>  (51) 
anticonvulsant

>  <ref>  (51) 
Adv. Neurol. (1980), 27, 587-96; Neurology (1983), 33(4), 414-8; Neurology (1981), 31(6), 741-4

>  <cas#>  (51) 
77-41-8

>  <source>  (51) 
synthetic

>  <status>  (51) 
USP, INN, BAN

>  <tradename>  (51) 
CELONTIN

>  <SMILES>  (51) 
CN1C(=O)CC(C)(c2ccccc2)C1=O

>  <standardized_failed>  (51) 
False

$$$$

     RDKit          2D

 28 28  0  0  0  0  0  0  0  0999 V2000
    2.4417   -2.0667    0.0000 N   0  0  0  0  0  0  0  0  0  0  0  0
    1.7375   -2.4875    0.0000 C   0  0  0  0  0  0  0  0  0  0  0  0
    3.8750   -1.2500    0.0000 N   0  0  0  0  0  0  0  0  0  0  0  0
    6.7292   -1.2542    0.0000 C   0  0  0  0  0  0  0  0  0  0  0  0
    1.0167   -2.0750    0.0000 C   0  0  0  0  0  0  0  0  0  0  0  0
    2.4417   -1.2500    0.0000 C   0  0  0  0  0  0  0  0  0  0  0  0
    3.1625   -2.4875    0.0000 C   0  0  0  0  0  0  0  0  0  0  0  0
    6.7292   -2.0792    0.0000 O   0  0  0  0  0  0  0  0  0  0  0  0
    1.7375   -3.3125    0.0000 C   0  0  0  0  0  0  0  0  0  0  0  0
    0.3042   -2.4875    0.0000 C   0  0  0  0  0  0  0  0  0  0  0  0
    1.0167   -1.2417    0.0000 C   0  0  0  0  0  0  0  0  0  0  0  0
    3.1625   -0.8375    0.0000 C   0  0  0  0  0  0  0  0  0  0  0  0
    3.8667   -2.0792    0.0000 C   0  0  0  0  0  0  0  0  0  0  0  0
   -0.4083   -1.2500    0.0000 C   0  0  0  0  0  0  0  0  0  0  0  0
    7.4500   -0.8417    0.0000 O   0  0  0  0  0  0  0  0  0  0  0  0
    0.3042   -0.8292    0.0000 C   0  0  0  0  0  0  0  0  0  0  0  0
   -0.4083   -2.0750    0.0000 C   0  0  0  0  0  0  0  0  0  0  0  0
   -1.1208   -0.8375    0.0000 Cl  0  0  0  0  0  0  0  0  0  0  0  0
    6.1792   -4.2750    0.0000 Cl  0  0  0  0  0  0  0  0  0  0  0  0
    4.0542   -4.2750    0.0000 Cl  0  0  0  0  0  0  0  0  0  0  0  0
    4.5917   -0.8417    0.0000 C   0  0  0  0  0  0  0  0  0  0  0  0
    5.3042   -1.2542    0.0000 C   0  0  0  0  0  0  0  0  0  0  0  0
    6.0167   -0.8417    0.0000 C   0  0  0  0  0  0  0  0  0  0  0  0
    2.4417   -3.7167    0.0000 C   0  0  0  0  0  0  0  0  0  0  0  0
    1.0250   -3.7250    0.0000 C   0  0  0  0  0  0  0  0  0  0  0  0
    1.0250   -4.5417    0.0000 C   0  0  0  0  0  0  0  0  0  0  0  0
    2.4542   -4.5417    0.0000 C   0  0  0  0  0  0  0  0  0  0  0  0
    1.7417   -4.9542    0.0000 C   0  0  0  0  0  0  0  0  0  0  0  0
  2  1  1  6
  3 13  1  0
  4 23  1  0
  5  2  1  0
  6  1  1  0
  7  1  1  0
  8  4  2  0
  9  2  1  0
 10  5  2  0
 11  5  1  0
 12  6  1  0
 13  7  1  0
 14 16  1  0
 15  4  1  0
 16 11  2  0
 17 10  1  0
 18 14  1  0
 21  3  1  0
 22 21  1  0
 23 22  1  0
 24  9  2  0
 25  9  1  0
 26 25  2  0
 27 24  1  0
 28 26  1  0
  3 12  1  0
 17 14  2  0
 27 28  2  0
M  END
>  <ID>  (52) 


>  <MOLENAME>  (52) 
LEVOCETIRIZINE DIHYDROCHLORIDE

>  <therap>  (52) 
H1 antihistamine, antiallergic

>  <ref>  (52) 
Drugs Today (2009), 45(3), 213-225; Curr. Med. Res. Opin. (2010), 26(6), 1269-1275; Synthesis (1995), (7), 766-8

>  <cas#>  (52) 
130018-77-8 (base)

>  <source>  (52) 
synthetic

>  <status>  (52) 
USAN, INN, BAN

>  <tradename>  (52) 
XYZAL

>  <SMILES>  (52) 
O=C(O)CCCN1CCN([C@H](c2ccccc2)c2ccc(Cl)cc2)CC1

>  <standardized_failed>  (52) 
False

$$$$

     RDKit          2D

 14 14  0  0  0  0  0  0  0  0999 V2000
    6.5417   -2.7708    0.0000 C   0  0  0  0  0  0  0  0  0  0  0  0
    5.7167   -2.7708    0.0000 C   0  0  0  0  0  0  0  0  0  0  0  0
    6.9542   -2.0542    0.0000 O   0  0  0  0  0  0  0  0  0  0  0  0
    6.9542   -3.4833    0.0000 O   0  0  0  0  0  0  0  0  0  0  0  0
    5.3042   -2.0542    0.0000 C   0  0  0  0  0  0  0  0  0  0  0  0
    5.3042   -3.4833    0.0000 C   0  0  0  0  0  0  0  0  0  0  0  0
    4.0625   -2.7708    0.0000 C   0  0  0  0  0  0  0  0  0  0  0  0
    7.7792   -2.0542    0.0000 C   0  0  0  0  0  0  0  0  0  0  0  0
    3.2375   -2.7708    0.0000 N   0  0  0  0  0  0  0  0  0  0  0  0
    4.4750   -3.4833    0.0000 C   0  0  0  0  0  0  0  0  0  0  0  0
    4.4750   -2.0542    0.0000 C   0  0  0  0  0  0  0  0  0  0  0  0
    8.1917   -1.3417    0.0000 C   0  0  0  0  0  0  0  0  0  0  0  0
    9.0250   -1.3417    0.0000 C   0  0  0  0  0  0  0  0  0  0  0  0
    7.7833   -0.6292    0.0000 C   0  0  0  0  0  0  0  0  0  0  0  0
  2  1  1  0
  3  1  1  0
  4  1  2  0
  5  2  2  0
  6  2  1  0
  7 10  1  0
  8  3  1  0
  9  7  1  0
 10  6  2  0
 11  5  1  0
 12  8  1  0
 13 12  1  0
 14 12  1  0
  7 11  2  0
M  END
>  <ID>  (53) 


>  <MOLENAME>  (53) 
ISOBUTAMBEN

>  <therap>  (53) 
anesthetic (topical)

>  <ref>  (53) 
Arzneim. Forsch. (1968), 18(7), 791-8; Ther. Ggw. (1911), 51, 348-51

>  <cas#>  (53) 
94-14-4

>  <source>  (53) 
synthetic

>  <status>  (53) 
USAN, INN

>  <tradename>  (53) 
nan

>  <SMILES>  (53) 
CC(C)COC(=O)c1ccc(N)cc1

>  <standardized_failed>  (53) 
False

$$$$

     RDKit          2D

 26 28  0  0  0  0  0  0  0  0999 V2000
    4.7500   -1.8542    0.0000 C   0  0  0  0  0  0  0  0  0  0  0  0
    4.1417   -1.3083    0.0000 N   0  0  0  0  0  0  0  0  0  0  0  0
    5.4625   -1.4458    0.0000 C   0  0  0  0  0  0  0  0  0  0  0  0
    6.1792   -1.8542    0.0000 C   0  0  0  0  0  0  0  0  0  0  0  0
    4.7500   -2.6833    0.0000 N   0  0  0  0  0  0  0  0  0  0  0  0
    5.2875   -0.6417    0.0000 N   0  0  0  0  0  0  0  0  0  0  0  0
    6.1792   -2.6833    0.0000 N   0  0  0  0  0  0  0  0  0  0  0  0
    4.4708   -0.5583    0.0000 C   0  0  0  0  0  0  0  0  0  0  0  0
   10.3667   -1.6042    0.0000 S   0  0  0  0  0  0  0  0  0  0  0  0
    5.4625   -3.0958    0.0000 C   0  0  0  0  0  0  0  0  0  0  0  0
    3.3333   -1.4792    0.0000 C   0  0  0  0  0  0  0  0  0  0  0  0
    6.8917   -1.4375    0.0000 N   0  0  0  0  0  0  0  0  0  0  0  0
    3.0000   -2.2375    0.0000 C   0  0  0  0  0  0  0  0  0  0  0  0
    7.6083   -1.8458    0.0000 C   0  0  0  0  0  0  0  0  0  0  0  0
   11.0833   -1.1917    0.0000 O   0  0  0  0  0  0  0  0  0  0  0  0
    9.6542   -1.1917    0.0000 O   0  0  0  0  0  0  0  0  0  0  0  0
    2.1792   -2.1500    0.0000 C   0  0  0  0  0  0  0  0  0  0  0  0
    8.4333   -1.8417    0.0000 C   0  0  0  0  0  0  0  0  0  0  0  0
    8.0250   -2.5542    0.0000 C   0  0  0  0  0  0  0  0  0  0  0  0
    2.7208   -0.9292    0.0000 C   0  0  0  0  0  0  0  0  0  0  0  0
    9.8042   -2.3250    0.0000 O   0  0  0  0  0  0  0  0  0  0  0  0
   10.8042   -2.2292    0.0000 O   0  0  0  0  0  0  0  0  0  0  0  0
    5.4625   -3.9208    0.0000 N   0  0  0  0  0  0  0  0  0  0  0  0
    2.0083   -1.3458    0.0000 C   0  0  0  0  0  0  0  0  0  0  0  0
    1.1667   -0.1875    0.0000 O   0  0  0  0  0  0  0  0  0  0  0  0
    1.2542   -1.0083    0.0000 C   0  0  0  0  0  0  0  0  0  0  0  0
  2  1  1  0
  3  1  1  0
  4  3  2  0
  5  1  2  0
  6  3  1  0
  7  4  1  0
  8  2  1  0
 10  5  1  0
  2 11  1  0
 12  4  1  0
 13 11  1  0
 14 12  1  0
 15  9  2  0
 16  9  2  0
 17 13  2  0
 18 14  1  0
 19 14  1  0
 20 11  1  0
 21  9  1  0
 22  9  1  0
 23 10  1  0
 24 20  1  0
 25 26  1  0
 24 26  1  1
  8  6  2  0
  7 10  2  0
 17 24  1  0
 19 18  1  0
M  END
>  <ID>  (54) 


>  <MOLENAME>  (54) 
ABACAVIR SULFATE

>  <therap>  (54) 
antiviral

>  <ref>  (54) 
Drugs 55:729 (1998); J Am Med Assoc 285:1155 (2001)

>  <cas#>  (54) 
188062-50-2

>  <source>  (54) 
synthetic

>  <status>  (54) 
USAN, INN, BAN

>  <tradename>  (54) 
ZIAGEN

>  <SMILES>  (54) 
Nc1nc(NC2CC2)c2ncn(C3C=C[C@@H](CO)C3)c2n1

>  <standardized_failed>  (54) 
False

$$$$

     RDKit          2D

 13 13  0  0  0  0  0  0  0  0999 V2000
    6.7375   -2.9625    0.0000 N   0  0  0  0  0  0  0  0  0  0  0  0
    7.1042   -2.3042    0.0000 C   0  0  0  0  0  0  0  0  0  0  0  0
    7.1125   -3.6125    0.0000 C   0  0  0  0  0  0  0  0  0  0  0  0
    6.7292   -1.6625    0.0000 O   0  0  0  0  0  0  0  0  0  0  0  0
    7.8625   -3.6125    0.0000 O   0  0  0  0  0  0  0  0  0  0  0  0
    6.7375   -4.2542    0.0000 C   0  0  0  0  0  0  0  0  0  0  0  0
    7.8542   -2.3042    0.0000 N   0  0  0  0  0  0  0  0  0  0  0  0
    5.9875   -4.2542    0.0000 C   0  0  0  0  0  0  0  0  0  0  0  0
    5.6125   -4.9042    0.0000 C   0  0  0  0  0  0  0  0  0  0  0  0
    5.6125   -3.6125    0.0000 C   0  0  0  0  0  0  0  0  0  0  0  0
    4.8625   -4.9042    0.0000 C   0  0  0  0  0  0  0  0  0  0  0  0
    4.8625   -3.6125    0.0000 C   0  0  0  0  0  0  0  0  0  0  0  0
    4.4875   -4.2542    0.0000 C   0  0  0  0  0  0  0  0  0  0  0  0
  2  1  1  0
  3  1  1  0
  4  2  2  0
  5  3  2  0
  6  3  1  0
  7  2  1  0
  8  6  1  0
  9  8  2  0
 10  8  1  0
 11  9  1  0
 12 10  2  0
 13 12  1  0
 11 13  2  0
M  END
>  <ID>  (55) 


>  <MOLENAME>  (55) 
PHENACEMIDE

>  <therap>  (55) 
anticonvulsant

>  <ref>  (55) 
Arzneim Forsch 18:524 (1968)

>  <cas#>  (55) 
63-98-9

>  <source>  (55) 
synthetic

>  <status>  (55) 
USP-XIII, INN, BAN

>  <tradename>  (55) 
PHENURONE

>  <SMILES>  (55) 
NC(=O)NC(=O)Cc1ccccc1

>  <standardized_failed>  (55) 
False

$$$$

     RDKit          2D

 20 20  0  0  0  0  0  0  0  0999 V2000
    9.3167   -2.7042    0.0000 S   0  0  0  0  0  0  0  0  0  0  0  0
    3.1083   -2.6208    0.0000 C   0  0  0  0  0  0  0  0  0  0  0  0
    6.4000   -1.4292    0.0000 C   0  0  0  0  0  0  0  0  0  0  0  0
    3.9042   -2.8333    0.0000 O   0  0  0  0  0  0  0  0  0  0  0  0
    3.0625   -1.7958    0.0000 O   0  0  0  0  0  0  0  0  0  0  0  0
    9.3375   -3.4625    0.0000 O   0  0  0  0  0  0  0  0  0  0  0  0
    9.3167   -1.8792    0.0000 O   0  0  0  0  0  0  0  0  0  0  0  0
    6.8125   -2.1417    0.0000 N   0  0  0  0  0  0  0  0  0  0  0  0
    5.5792   -1.4292    0.0000 N   0  0  0  0  0  0  0  0  0  0  0  0
    4.3500   -2.1417    0.0000 C   0  0  0  0  0  0  0  0  0  0  0  0
    8.4292   -2.7167    0.0000 O   0  0  0  0  0  0  0  0  0  0  0  0
   10.1167   -2.6792    0.0000 O   0  0  0  0  0  0  0  0  0  0  0  0
    6.8042   -0.7167    0.0000 N   0  0  0  0  0  0  0  0  0  0  0  0
    3.8333   -1.5000    0.0000 C   0  0  0  0  0  0  0  0  0  0  0  0
    5.1667   -2.1417    0.0000 C   0  0  0  0  0  0  0  0  0  0  0  0
    3.1042   -3.4417    0.0000 C   0  0  0  0  0  0  0  0  0  0  0  0
    2.3917   -2.2042    0.0000 C   0  0  0  0  0  0  0  0  0  0  0  0
    1.6792   -2.6167    0.0000 C   0  0  0  0  0  0  0  0  0  0  0  0
    2.3917   -3.8542    0.0000 C   0  0  0  0  0  0  0  0  0  0  0  0
    1.6792   -3.4417    0.0000 C   0  0  0  0  0  0  0  0  0  0  0  0
  3  9  1  0
  4  2  1  0
  5  2  1  0
  6  1  2  0
  7  1  2  0
  8  3  2  0
  9 15  1  0
 10  4  1  0
 11  1  1  0
 12  1  1  0
 13  3  1  0
 14  5  1  0
 15 10  1  0
 16  2  1  0
 17  2  1  0
 18 17  1  0
 19 16  1  0
 20 18  1  0
 14 10  1  0
 19 20  1  0
M  END
>  <ID>  (56) 


>  <MOLENAME>  (56) 
GUANADREL SULFATE

>  <therap>  (56) 
antihypertensive

>  <ref>  (56) 
Am. J. Cardiol. (1991), 67(7), 590-6; Aust. J. Pharm. Sci. (1976), 5(2), 35-40; Proc. Soc. Exp. Biol. Med. (1972), 139(2), 600-3

>  <cas#>  (56) 
22195-34-2

>  <source>  (56) 
synthetic

>  <status>  (56) 
USP, INN

>  <tradename>  (56) 
HYLOREL

>  <SMILES>  (56) 
N=C(N)NCC1COC2(CCCCC2)O1

>  <standardized_failed>  (56) 
False

$$$$

     RDKit          2D

 23 24  0  0  0  0  0  0  0  0999 V2000
    3.7542   -1.9542    0.0000 C   0  0  0  0  0  0  0  0  0  0  0  0
    3.0458   -2.3708    0.0000 C   0  0  0  0  0  0  0  0  0  0  0  0
    3.7500   -1.1292    0.0000 C   0  0  0  0  0  0  0  0  0  0  0  0
    5.8875   -0.7125    0.0000 C   0  0  0  0  0  0  0  0  0  0  0  0
    6.6000   -1.1167    0.0000 C   0  0  0  0  0  0  0  0  0  0  0  0
    4.4625   -0.7167    0.0000 N   0  0  0  0  0  0  0  0  0  0  0  0
    3.0458   -3.1958    0.0000 C   0  0  0  0  0  0  0  0  0  0  0  0
    7.3083   -0.7083    0.0000 C   0  0  0  0  0  0  0  0  0  0  0  0
    8.0417   -2.7750    0.0000 Cl  0  0  0  0  0  0  0  0  0  0  0  0
    5.1750   -1.1250    0.0000 C   0  0  0  0  0  0  0  0  0  0  0  0
    4.4708   -2.3625    0.0000 C   0  0  0  0  0  0  0  0  0  0  0  0
    4.4750   -3.1917    0.0000 C   0  0  0  0  0  0  0  0  0  0  0  0
    2.3292   -1.9583    0.0000 C   0  0  0  0  0  0  0  0  0  0  0  0
    3.7625   -3.6083    0.0000 C   0  0  0  0  0  0  0  0  0  0  0  0
    4.4583    0.1083    0.0000 C   0  0  0  0  0  0  0  0  0  0  0  0
    2.3292   -3.6125    0.0000 C   0  0  0  0  0  0  0  0  0  0  0  0
    7.3042    0.1083    0.0000 C   0  0  0  0  0  0  0  0  0  0  0  0
    8.0250   -1.1167    0.0000 C   0  0  0  0  0  0  0  0  0  0  0  0
    1.6167   -2.3750    0.0000 C   0  0  0  0  0  0  0  0  0  0  0  0
    1.6167   -3.2000    0.0000 C   0  0  0  0  0  0  0  0  0  0  0  0
    8.7292   -0.7000    0.0000 C   0  0  0  0  0  0  0  0  0  0  0  0
    8.0083    0.5250    0.0000 C   0  0  0  0  0  0  0  0  0  0  0  0
    8.7250    0.1208    0.0000 C   0  0  0  0  0  0  0  0  0  0  0  0
  2  1  1  0
  3  1  1  0
  4 10  1  0
  5  4  2  0
  6  3  1  0
  7  2  2  0
  8  5  1  0
 10  6  1  0
 11  1  2  0
 12 11  1  0
 13  2  1  0
 14  7  1  0
 15  6  1  0
 16  7  1  0
 17  8  2  0
 18  8  1  0
 19 13  2  0
 20 19  1  0
 21 18  2  0
 22 17  1  0
 23 22  2  0
 12 14  2  0
 16 20  2  0
 23 21  1  0
M  END
>  <ID>  (57) 


>  <MOLENAME>  (57) 
NAFTIFINE HYDROCHLORIDE

>  <therap>  (57) 
antifungal

>  <ref>  (57) 
J. Drugs Dermatol. (2011), 10(11), 1282-1288; Antimicrob. Agents Chemother. (1981), 19(3), 386-9; Antimicrob. Agents Chemother. (1981), 19(3), 390-2

>  <cas#>  (57) 
65473-14-5

>  <source>  (57) 
synthetic; AW-105-843

>  <status>  (57) 
USP, INN, BAN

>  <tradename>  (57) 
NAFTIN

>  <SMILES>  (57) 
CN(C/C=C/c1ccccc1)Cc1cccc2c1cccc2

>  <standardized_failed>  (57) 
False

$$$$

     RDKit          2D

 17 19  0  0  0  0  0  0  0  0999 V2000
    6.3000   -6.9500    0.0000 C   0  0  0  0  0  0  0  0  0  0  0  0
    6.3000   -8.2792    0.0000 C   0  0  0  0  0  0  0  0  0  0  0  0
    5.8167   -7.6125    0.0000 C   0  0  0  0  0  0  0  0  0  0  0  0
    7.0792   -8.0292    0.0000 C   0  0  0  0  0  0  0  0  0  0  0  0
    7.0792   -7.2042    0.0000 C   0  0  0  0  0  0  0  0  0  0  0  0
    6.0417   -9.0667    0.0000 O   0  0  0  0  0  0  0  0  0  0  0  0
    6.0417   -6.1625    0.0000 O   0  0  0  0  0  0  0  0  0  0  0  0
    4.9917   -7.6042    0.0000 C   0  0  0  0  0  0  0  0  0  0  0  0
    7.7917   -8.4417    0.0000 C   0  0  0  0  0  0  0  0  0  0  0  0
    7.7917   -6.7917    0.0000 C   0  0  0  0  0  0  0  0  0  0  0  0
    4.5792   -6.8917    0.0000 C   0  0  0  0  0  0  0  0  0  0  0  0
    4.5792   -8.3167    0.0000 C   0  0  0  0  0  0  0  0  0  0  0  0
    8.5125   -7.2042    0.0000 C   0  0  0  0  0  0  0  0  0  0  0  0
    8.5125   -8.0292    0.0000 C   0  0  0  0  0  0  0  0  0  0  0  0
    3.7542   -8.3167    0.0000 C   0  0  0  0  0  0  0  0  0  0  0  0
    3.7542   -6.8875    0.0000 C   0  0  0  0  0  0  0  0  0  0  0  0
    3.3417   -7.6042    0.0000 C   0  0  0  0  0  0  0  0  0  0  0  0
  2  3  1  0
  3  1  1  0
  4  5  2  0
  5  1  1  0
  6  2  2  0
  7  1  2  0
  8  3  1  0
  9  4  1  0
 10  5  1  0
 11  8  2  0
 12  8  1  0
 13 10  2  0
 14 13  1  0
 15 12  2  0
 16 11  1  0
 17 15  1  0
  4  2  1  0
  9 14  2  0
 16 17  2  0
M  END
>  <ID>  (58) 


>  <MOLENAME>  (58) 
PHENINDIONE

>  <therap>  (58) 
anticoagulant

>  <ref>  (58) 
Arch Intern Med 105:121 (1960); Austral New Zeal J Surg 39:207 (1969)

>  <cas#>  (58) 
83-12-5

>  <source>  (58) 
synthetic

>  <status>  (58) 
USP-XXII, INN, BAN

>  <tradename>  (58) 
HEDULIN

>  <SMILES>  (58) 
O=C1c2c(cccc2)C(=O)C1c1ccccc1

>  <standardized_failed>  (58) 
False

$$$$

     RDKit          2D

 18 17  0  0  0  0  0  0  0  0999 V2000
    3.6167   -1.6875    0.0000 C   0  0  0  0  0  0  0  0  0  0  0  0
    4.0292   -2.4000    0.0000 O   0  0  0  0  0  0  0  0  0  0  0  0
    4.0250   -0.9708    0.0000 O   0  0  0  0  0  0  0  0  0  0  0  0
    2.7958   -1.6875    0.0000 C   0  0  0  0  0  0  0  0  0  0  0  0
    5.2625   -3.1125    0.0000 C   0  0  0  0  0  0  0  0  0  0  0  0
    4.8500   -2.4000    0.0000 C   0  0  0  0  0  0  0  0  0  0  0  0
    6.0792   -3.1125    0.0000 N   0  0  0  0  0  0  0  0  0  0  0  0
    7.2750   -1.8667    0.0000 Cl  0  0  0  0  0  0  0  0  0  0  0  0
    5.2750   -3.9000    0.0000 C   0  0  0  0  0  0  0  0  0  0  0  0
    4.4625   -3.3250    0.0000 C   0  0  0  0  0  0  0  0  0  0  0  0
    2.3833   -0.9750    0.0000 C   0  0  0  0  0  0  0  0  0  0  0  0
    2.3833   -2.4000    0.0000 C   0  0  0  0  0  0  0  0  0  0  0  0
    6.4917   -3.8250    0.0000 C   0  0  0  0  0  0  0  0  0  0  0  0
    7.3167   -3.8250    0.0000 C   0  0  0  0  0  0  0  0  0  0  0  0
    7.7292   -4.5375    0.0000 C   0  0  0  0  0  0  0  0  0  0  0  0
    1.5583   -2.4000    0.0000 C   0  0  0  0  0  0  0  0  0  0  0  0
    1.5583   -0.9792    0.0000 C   0  0  0  0  0  0  0  0  0  0  0  0
    1.1500   -1.6917    0.0000 C   0  0  0  0  0  0  0  0  0  0  0  0
  2  1  1  0
  3  1  2  0
  4  1  1  0
  5  6  1  0
  6  2  1  0
  7  5  1  0
  9  5  1  0
 10  5  1  0
 11  4  2  0
 12  4  1  0
 13  7  1  0
 14 13  1  0
 15 14  1  0
 16 12  2  0
 17 11  1  0
 18 16  1  0
 18 17  2  0
M  END
>  <ID>  (59) 


>  <MOLENAME>  (59) 
MEPRYLCAINE HYDROCHLORIDE

>  <therap>  (59) 
local anesthetic, 5HT2 agonist

>  <ref>  (59) 
Clin. Pharmacol. Ther. (1964), 5, 49-62; J. Am. Chem. Soc. (1945), 67, 933-9

>  <cas#>  (59) 
956-03-6

>  <source>  (59) 
synthetic

>  <status>  (59) 
USP-XXII

>  <tradename>  (59) 
nan

>  <SMILES>  (59) 
CCCNC(C)(C)COC(=O)c1ccccc1

>  <standardized_failed>  (59) 
False

$$$$

     RDKit          2D

 23 25  0  0  0  0  0  0  0  0999 V2000
    4.4000   -2.7042    0.0000 N   0  0  0  0  0  0  0  0  0  0  0  0
    3.8417   -2.2000    0.0000 N   0  0  0  0  0  0  0  0  0  0  0  0
    3.1917   -2.5750    0.0000 C   0  0  0  0  0  0  0  0  0  0  0  0
    4.0917   -3.3875    0.0000 C   0  0  0  0  0  0  0  0  0  0  0  0
    3.3542   -3.3125    0.0000 C   0  0  0  0  0  0  0  0  0  0  0  0
    3.8417   -1.4500    0.0000 C   0  0  0  0  0  0  0  0  0  0  0  0
    5.1125   -2.4667    0.0000 C   0  0  0  0  0  0  0  0  0  0  0  0
    2.5042   -2.2667    0.0000 O   0  0  0  0  0  0  0  0  0  0  0  0
    4.4667   -4.0500    0.0000 O   0  0  0  0  0  0  0  0  0  0  0  0
    2.8625   -3.8750    0.0000 C   0  0  0  0  0  0  0  0  0  0  0  0
    3.1917   -1.0750    0.0000 C   0  0  0  0  0  0  0  0  0  0  0  0
    4.4875   -1.0750    0.0000 C   0  0  0  0  0  0  0  0  0  0  0  0
    5.6667   -2.9667    0.0000 C   0  0  0  0  0  0  0  0  0  0  0  0
    5.2625   -1.7375    0.0000 C   0  0  0  0  0  0  0  0  0  0  0  0
    2.1292   -3.7292    0.0000 C   0  0  0  0  0  0  0  0  0  0  0  0
    1.6417   -4.2917    0.0000 C   0  0  0  0  0  0  0  0  0  0  0  0
    0.9125   -4.1417    0.0000 C   0  0  0  0  0  0  0  0  0  0  0  0
    3.1917   -0.3250    0.0000 C   0  0  0  0  0  0  0  0  0  0  0  0
    4.4875   -0.3250    0.0000 C   0  0  0  0  0  0  0  0  0  0  0  0
    6.3792   -2.7375    0.0000 C   0  0  0  0  0  0  0  0  0  0  0  0
    5.9667   -1.5000    0.0000 C   0  0  0  0  0  0  0  0  0  0  0  0
    6.5375   -2.0042    0.0000 C   0  0  0  0  0  0  0  0  0  0  0  0
    3.8417    0.0500    0.0000 C   0  0  0  0  0  0  0  0  0  0  0  0
  2  1  1  0
  3  2  1  0
  4  1  1  0
  5  4  1  0
  6  2  1  0
  7  1  1  0
  8  3  2  0
  9  4  2  0
 10  5  1  0
 11  6  2  0
 12  6  1  0
 13  7  2  0
 14  7  1  0
 15 10  1  0
 16 15  1  0
 17 16  1  0
 18 11  1  0
 19 12  2  0
 20 13  1  0
 21 14  2  0
 22 21  1  0
 23 19  1  0
  5  3  1  0
 22 20  2  0
 18 23  2  0
M  END
>  <ID>  (60) 


>  <MOLENAME>  (60) 
PHENYLBUTAZONE

>  <therap>  (60) 
antiinflammatory

>  <ref>  (60) 
Fundam Appl Toxicol 7:299 (1986); Pharmacotherapy 7:25 (1987)

>  <cas#>  (60) 
50-33-9

>  <source>  (60) 
synthetic

>  <status>  (60) 
USP, INN, BAN, JAN

>  <tradename>  (60) 
AZOLID

>  <SMILES>  (60) 
CCCCC1C(=O)N(c2ccccc2)N(c2ccccc2)C1=O

>  <standardized_failed>  (60) 
False

$$$$

     RDKit          2D

 25 26  0  0  0  0  0  0  0  0999 V2000
    6.1042   -1.3625    0.0000 C   0  0  0  0  0  0  0  0  0  0  0  0
    5.3917   -1.7792    0.0000 C   0  0  0  0  0  0  0  0  0  0  0  0
    1.7292   -3.0167    0.0000 C   0  0  0  0  0  0  0  0  0  0  0  0
    4.6750   -1.3667    0.0000 O   0  0  0  0  0  0  0  0  0  0  0  0
    6.8167   -1.7667    0.0000 O   0  0  0  0  0  0  0  0  0  0  0  0
    1.7292   -3.8417    0.0000 C   0  0  0  0  0  0  0  0  0  0  0  0
    2.5375   -2.6125    0.0000 C   0  0  0  0  0  0  0  0  0  0  0  0
    6.1000   -0.5375    0.0000 O   0  0  0  0  0  0  0  0  0  0  0  0
    1.0292   -2.5875    0.0000 O   0  0  0  0  0  0  0  0  0  0  0  0
    2.4417   -4.2542    0.0000 C   0  0  0  0  0  0  0  0  0  0  0  0
    2.5292   -1.7917    0.0000 C   0  0  0  0  0  0  0  0  0  0  0  0
    3.2542   -3.0250    0.0000 C   0  0  0  0  0  0  0  0  0  0  0  0
    1.0167   -4.2542    0.0000 C   0  0  0  0  0  0  0  0  0  0  0  0
    3.9625   -1.7792    0.0000 C   0  0  0  0  0  0  0  0  0  0  0  0
    1.7292   -5.4917    0.0000 C   0  0  0  0  0  0  0  0  0  0  0  0
    3.9667   -2.6125    0.0000 C   0  0  0  0  0  0  0  0  0  0  0  0
    3.2417   -1.3750    0.0000 C   0  0  0  0  0  0  0  0  0  0  0  0
    1.0167   -5.0792    0.0000 C   0  0  0  0  0  0  0  0  0  0  0  0
    2.4417   -5.0792    0.0000 C   0  0  0  0  0  0  0  0  0  0  0  0
    1.7292   -6.3167    0.0000 Cl  0  0  0  0  0  0  0  0  0  0  0  0
    5.8542   -2.4917    0.0000 C   0  0  0  0  0  0  0  0  0  0  0  0
    4.9250   -2.4667    0.0000 C   0  0  0  0  0  0  0  0  0  0  0  0
    7.5292   -1.3542    0.0000 C   0  0  0  0  0  0  0  0  0  0  0  0
    7.5292   -0.5292    0.0000 C   0  0  0  0  0  0  0  0  0  0  0  0
    8.2500   -1.7625    0.0000 C   0  0  0  0  0  0  0  0  0  0  0  0
  2  1  1  0
  3  7  1  0
  4  2  1  0
  5  1  1  0
  6  3  1  0
  7 11  2  0
  8  1  2  0
  9  3  2  0
 10  6  2  0
 11 17  1  0
 12 16  2  0
 13  6  1  0
 14  4  1  0
 15 18  1  0
 16 14  1  0
 17 14  2  0
 18 13  2  0
 19 10  1  0
 20 15  1  0
 21  2  1  0
 22  2  1  0
 23  5  1  0
 24 23  1  0
 25 23  1  0
  7 12  1  0
 15 19  2  0
M  END
>  <ID>  (61) 


>  <MOLENAME>  (61) 
FENOFIBRATE

>  <therap>  (61) 
antihyperlipidemic

>  <ref>  (61) 
Praxis 68:24 (1979); Schweiz Med Wochensch 109:601 (1979); Artery 9:120 (1981)

>  <cas#>  (61) 
49562-28-9

>  <source>  (61) 
synthetic

>  <status>  (61) 
USAN, INN, BAN

>  <tradename>  (61) 
TRICOR

>  <SMILES>  (61) 
CC(C)OC(=O)C(C)(C)Oc1ccc(C(=O)c2ccc(Cl)cc2)cc1

>  <standardized_failed>  (61) 
False

$$$$

     RDKit          2D

 18 19  0  0  0  0  0  0  0  0999 V2000
    2.1292    0.2083    0.0000 C   0  0  0  0  0  0  0  0  0  0  0  0
    0.7042    0.2000    0.0000 C   0  0  0  0  0  0  0  0  0  0  0  0
    1.4167    0.6208    0.0000 C   0  0  0  0  0  0  0  0  0  0  0  0
   -0.0125    0.6083    0.0000 C   0  0  0  0  0  0  0  0  0  0  0  0
    2.1417   -0.6167    0.0000 O   0  0  0  0  0  0  0  0  0  0  0  0
   -0.7208    0.1875    0.0000 C   0  0  0  0  0  0  0  0  0  0  0  0
   -1.4333    0.5958    0.0000 O   0  0  0  0  0  0  0  0  0  0  0  0
    2.8417    0.6250    0.0000 O   0  0  0  0  0  0  0  0  0  0  0  0
   -2.1458    0.1833    0.0000 C   0  0  0  0  0  0  0  0  0  0  0  0
    0.7125   -0.6292    0.0000 C   0  0  0  0  0  0  0  0  0  0  0  0
   -0.0083   -1.0417    0.0000 C   0  0  0  0  0  0  0  0  0  0  0  0
   -0.7208   -0.6375    0.0000 C   0  0  0  0  0  0  0  0  0  0  0  0
    1.4042    1.4458    0.0000 C   0  0  0  0  0  0  0  0  0  0  0  0
   -2.1458   -0.6500    0.0000 C   0  0  0  0  0  0  0  0  0  0  0  0
   -2.8625    0.5958    0.0000 C   0  0  0  0  0  0  0  0  0  0  0  0
   -2.8625   -1.0625    0.0000 C   0  0  0  0  0  0  0  0  0  0  0  0
   -3.5750    0.1750    0.0000 C   0  0  0  0  0  0  0  0  0  0  0  0
   -3.5750   -0.6500    0.0000 C   0  0  0  0  0  0  0  0  0  0  0  0
  2  3  1  0
  3  1  1  0
  4  2  2  0
  5  1  2  0
  6  4  1  0
  7  6  1  0
  8  1  1  0
  9  7  1  0
 10  2  1  0
 11 10  2  0
 12 11  1  0
 13  3  1  0
 14  9  2  0
 15  9  1  0
 16 14  1  0
 17 15  2  0
 18 17  1  0
  6 12  2  0
 18 16  2  0
M  END
>  <ID>  (62) 


>  <MOLENAME>  (62) 
FENOPROFEN

>  <therap>  (62) 
antiinflammatory

>  <ref>  (62) 
Pharmacol. Biochem. Prop. Drug Subst. (1977), 1, 183-213; Drugs (1977), 13(4), 241-65; Prostaglandins (1974), 6(2), 107-13

>  <cas#>  (62) 
31879-05-7

>  <source>  (62) 
synthetic; 53858

>  <status>  (62) 
USAN, INN, BAN

>  <tradename>  (62) 
NALFON

>  <SMILES>  (62) 
CC(C(=O)O)c1cc(Oc2ccccc2)ccc1

>  <standardized_failed>  (62) 
False

$$$$

     RDKit          2D

 20 21  0  0  0  0  0  0  0  0999 V2000
    5.7542   -5.0125    0.0000 C   0  0  0  0  0  0  0  0  0  0  0  0
    3.6042   -1.3042    0.0000 C   0  0  0  0  0  0  0  0  0  0  0  0
    3.6042   -2.1375    0.0000 C   0  0  0  0  0  0  0  0  0  0  0  0
    4.3167   -0.8917    0.0000 C   0  0  0  0  0  0  0  0  0  0  0  0
    4.3167   -2.5500    0.0000 N   0  0  0  0  0  0  0  0  0  0  0  0
    5.0417   -4.6042    0.0000 C   0  0  0  0  0  0  0  0  0  0  0  0
    4.3167   -3.3750    0.0000 C   0  0  0  0  0  0  0  0  0  0  0  0
    5.0292   -3.7792    0.0000 C   0  0  0  0  0  0  0  0  0  0  0  0
    4.3125   -0.0667    0.0000 O   0  0  0  0  0  0  0  0  0  0  0  0
    5.9667   -4.2125    0.0000 F   0  0  0  0  0  0  0  0  0  0  0  0
    6.5542   -5.2250    0.0000 F   0  0  0  0  0  0  0  0  0  0  0  0
    5.7625   -5.8375    0.0000 F   0  0  0  0  0  0  0  0  0  0  0  0
    5.0292   -1.3000    0.0000 O   0  0  0  0  0  0  0  0  0  0  0  0
    2.8875   -0.8917    0.0000 C   0  0  0  0  0  0  0  0  0  0  0  0
    2.8875   -2.5500    0.0000 C   0  0  0  0  0  0  0  0  0  0  0  0
    4.3250   -5.0167    0.0000 C   0  0  0  0  0  0  0  0  0  0  0  0
    3.6042   -4.6042    0.0000 C   0  0  0  0  0  0  0  0  0  0  0  0
    3.6042   -3.7875    0.0000 C   0  0  0  0  0  0  0  0  0  0  0  0
    2.1750   -1.3125    0.0000 C   0  0  0  0  0  0  0  0  0  0  0  0
    2.1750   -2.1375    0.0000 C   0  0  0  0  0  0  0  0  0  0  0  0
  2  3  2  0
  3  5  1  0
  4  2  1  0
  5  7  1  0
  6  1  1  0
  7  8  1  0
  8  6  2  0
  9  4  2  0
 10  1  1  0
 11  1  1  0
 12  1  1  0
 13  4  1  0
 14  2  1  0
 15  3  1  0
 16  6  1  0
 17 16  2  0
 18 17  1  0
 19 20  1  0
 20 15  2  0
  7 18  2  0
 14 19  2  0
M  END
>  <ID>  (63) 


>  <MOLENAME>  (63) 
FLUFENAMIC ACID

>  <therap>  (63) 
antiinflammatory, analgesic

>  <ref>  (63) 
Arthritis Rheum 6:36 (1963); 12:472 (1969); Farmaco Ed Sci 26:191 (1971)

>  <cas#>  (63) 
530-78-9

>  <source>  (63) 
synthetic; CI-440, CN-27554

>  <status>  (63) 
USAN, INN, BAN, JAN

>  <tradename>  (63) 
ARLEF

>  <SMILES>  (63) 
O=C(O)c1c(Nc2cccc(C(F)(F)F)c2)cccc1

>  <standardized_failed>  (63) 
False

$$$$

     RDKit          2D

 12 11  0  0  0  0  0  0  0  0999 V2000
    5.9500   -3.2292    0.0000 C   0  0  0  0  0  0  0  0  0  0  0  0
    4.3042   -3.2375    0.0000 C   0  0  0  0  0  0  0  0  0  0  0  0
    6.7750   -3.2292    0.0000 C   0  0  0  0  0  0  0  0  0  0  0  0
    8.3250   -2.4292    0.0000 Br  0  0  0  0  0  0  0  0  0  0  0  0
    8.0125   -3.9500    0.0000 N   0  0  0  0  0  0  0  0  0  0  0  0
    5.5375   -3.9417    0.0000 C   0  0  0  0  0  0  0  0  0  0  0  0
    5.5375   -2.5167    0.0000 C   0  0  0  0  0  0  0  0  0  0  0  0
    4.7125   -3.9417    0.0000 C   0  0  0  0  0  0  0  0  0  0  0  0
    4.7125   -2.5250    0.0000 C   0  0  0  0  0  0  0  0  0  0  0  0
    3.4792   -3.2375    0.0000 O   0  0  0  0  0  0  0  0  0  0  0  0
    7.1875   -3.9500    0.0000 C   0  0  0  0  0  0  0  0  0  0  0  0
    6.7750   -4.6625    0.0000 C   0  0  0  0  0  0  0  0  0  0  0  0
  2  8  2  0
  3  1  1  0
  5 11  1  0
  6  1  2  0
  7  1  1  0
  8  6  1  0
  9  7  2  0
 10  2  1  0
 11  3  1  0
 12 11  1  0
  9  2  1  0
M  END
>  <ID>  (64) 


>  <MOLENAME>  (64) 
HYDROXYAMPHETAMINE HYDROBROMIDE

>  <therap>  (64) 
analeptic (peripheral)

>  <ref>  (64) 
J. Pharmacol. Exp. Ther. (1980), 213(3), 504-8; J. Pharmacol. Exp. Ther. (1973), 185(3), 620-32; Br. J. Pharmacol. (1970), 40(2), 219-26

>  <cas#>  (64) 
306-21-8, 1518-86-1 [hydroxyamphetamine]

>  <source>  (64) 
synthetic

>  <status>  (64) 
USP, INN, BAN

>  <tradename>  (64) 
PAREDRINE

>  <SMILES>  (64) 
CC(N)Cc1ccc(O)cc1

>  <standardized_failed>  (64) 
False

$$$$

     RDKit          2D

 21 23  0  0  0  0  0  0  0  0999 V2000
    7.8000   -3.8417    0.0000 C   0  0  0  0  0  0  0  0  0  0  0  0
    7.3167   -4.5250    0.0000 N   0  0  0  0  0  0  0  0  0  0  0  0
    7.3042   -3.1792    0.0000 N   0  0  0  0  0  0  0  0  0  0  0  0
    8.6250   -3.8375    0.0000 N   0  0  0  0  0  0  0  0  0  0  0  0
    6.5167   -3.4417    0.0000 C   0  0  0  0  0  0  0  0  0  0  0  0
    6.5292   -4.2750    0.0000 C   0  0  0  0  0  0  0  0  0  0  0  0
    9.0417   -4.5417    0.0000 C   0  0  0  0  0  0  0  0  0  0  0  0
    5.8000   -3.0417    0.0000 C   0  0  0  0  0  0  0  0  0  0  0  0
    5.0917   -3.4542    0.0000 C   0  0  0  0  0  0  0  0  0  0  0  0
    4.3792   -3.0500    0.0000 S   0  0  0  0  0  0  0  0  0  0  0  0
    8.6417   -5.2667    0.0000 O   0  0  0  0  0  0  0  0  0  0  0  0
    5.8042   -4.6917    0.0000 C   0  0  0  0  0  0  0  0  0  0  0  0
    9.8667   -4.5375    0.0000 O   0  0  0  0  0  0  0  0  0  0  0  0
    5.0917   -4.2792    0.0000 C   0  0  0  0  0  0  0  0  0  0  0  0
    3.6667   -3.4667    0.0000 C   0  0  0  0  0  0  0  0  0  0  0  0
   10.2917   -5.2417    0.0000 C   0  0  0  0  0  0  0  0  0  0  0  0
    2.9500   -3.0542    0.0000 C   0  0  0  0  0  0  0  0  0  0  0  0
    3.6667   -4.2917    0.0000 C   0  0  0  0  0  0  0  0  0  0  0  0
    2.2375   -3.4667    0.0000 C   0  0  0  0  0  0  0  0  0  0  0  0
    2.9500   -4.7042    0.0000 C   0  0  0  0  0  0  0  0  0  0  0  0
    2.2375   -4.2917    0.0000 C   0  0  0  0  0  0  0  0  0  0  0  0
  2  1  2  0
  3  1  1  0
  4  1  1  0
  5  3  1  0
  6  2  1  0
  7  4  1  0
  8  5  2  0
  9  8  1  0
 10  9  1  0
 11  7  2  0
 12  6  2  0
 13  7  1  0
 14 12  1  0
 15 10  1  0
 16 13  1  0
 17 15  2  0
 18 15  1  0
 19 17  1  0
 20 18  2  0
 21 20  1  0
  5  6  1  0
  9 14  2  0
 19 21  2  0
M  END
>  <ID>  (65) 


>  <MOLENAME>  (65) 
FENBENDAZOLE

>  <therap>  (65) 
anthelmintic

>  <ref>  (65) 
Res. Vet. Sci. (2004), 76(2), 95-108; Br. Vet. J. (1979), 135(4), 318-23; Am. J. Vet. Res. (1978), 39(6), 1037-8

>  <cas#>  (65) 
43210-67-9

>  <source>  (65) 
synthetic; Hoe-881V

>  <status>  (65) 
USAN, INN, BAN

>  <tradename>  (65) 
PANACUR

>  <SMILES>  (65) 
COC(=O)Nc1nc2ccc(Sc3ccccc3)cc2[nH]1

>  <standardized_failed>  (65) 
False

$$$$

     RDKit          2D

 32 34  0  0  0  0  0  0  0  0999 V2000
    5.1667   -5.2792    0.0000 C   0  0  0  0  0  0  0  0  0  0  0  0
    5.0750   -7.0792    0.0000 C   0  0  0  0  0  0  0  0  0  0  0  0
    5.8875   -5.6917    0.0000 C   0  0  0  0  0  0  0  0  0  0  0  0
    5.1667   -4.4542    0.0000 C   0  0  0  0  0  0  0  0  0  0  0  0
    4.4542   -5.6917    0.0000 C   0  0  0  0  0  0  0  0  0  0  0  0
    5.8792   -4.0417    0.0000 C   0  0  0  0  0  0  0  0  0  0  0  0
    6.6042   -5.2792    0.0000 N   0  0  0  0  0  0  0  0  0  0  0  0
    4.4542   -6.5167    0.0000 C   0  0  0  0  0  0  0  0  0  0  0  0
    5.8750   -3.2167    0.0000 C   0  0  0  0  0  0  0  0  0  0  0  0
    5.8542   -6.8292    0.0000 C   0  0  0  0  0  0  0  0  0  0  0  0
    4.7417   -7.8167    0.0000 C   0  0  0  0  0  0  0  0  0  0  0  0
    3.9167   -7.7417    0.0000 N   0  0  0  0  0  0  0  0  0  0  0  0
    6.6042   -4.4542    0.0000 C   0  0  0  0  0  0  0  0  0  0  0  0
    6.5792   -2.8000    0.0000 N   0  0  0  0  0  0  0  0  0  0  0  0
    3.7417   -6.9292    0.0000 C   0  0  0  0  0  0  0  0  0  0  0  0
    9.4167   -5.9375    0.0000 C   0  0  0  0  0  0  0  0  0  0  0  0
   10.5542   -5.2792    0.0000 C   0  0  0  0  0  0  0  0  0  0  0  0
    9.4167   -5.2792    0.0000 C   0  0  0  0  0  0  0  0  0  0  0  0
    9.9875   -4.9500    0.0000 C   0  0  0  0  0  0  0  0  0  0  0  0
    5.1542   -2.8042    0.0000 O   0  0  0  0  0  0  0  0  0  0  0  0
   11.1292   -4.9500    0.0000 O   0  0  0  0  0  0  0  0  0  0  0  0
    9.9875   -6.2667    0.0000 O   0  0  0  0  0  0  0  0  0  0  0  0
    3.7417   -5.2792    0.0000 C   0  0  0  0  0  0  0  0  0  0  0  0
    7.3250   -5.7042    0.0000 C   0  0  0  0  0  0  0  0  0  0  0  0
    8.8417   -6.2667    0.0000 O   0  0  0  0  0  0  0  0  0  0  0  0
   10.5542   -5.9375    0.0000 O   0  0  0  0  0  0  0  0  0  0  0  0
    7.3042   -3.2042    0.0000 C   0  0  0  0  0  0  0  0  0  0  0  0
    8.0125   -4.4042    0.0000 O   0  0  0  0  0  0  0  0  0  0  0  0
    3.0292   -5.6917    0.0000 C   0  0  0  0  0  0  0  0  0  0  0  0
    3.0292   -6.5167    0.0000 C   0  0  0  0  0  0  0  0  0  0  0  0
    7.3125   -4.0375    0.0000 C   0  0  0  0  0  0  0  0  0  0  0  0
    8.0167   -2.7917    0.0000 C   0  0  0  0  0  0  0  0  0  0  0  0
  2  8  1  0
  3  1  1  0
  4  1  2  0
  5  1  1  0
  6  4  1  0
  7  3  1  0
  8  5  2  0
  9  6  1  0
  3 10  1  6
 11  2  2  0
 12 15  1  0
 13  6  1  0
 14  9  1  0
 15  8  1  0
 17 19  1  0
 18 16  1  0
 19 18  2  0
 20  9  2  0
 21 17  2  0
 22 16  2  0
 23  5  1  0
 24  7  1  0
 25 16  1  0
 26 17  1  0
 27 14  1  0
 28 31  1  0
 29 23  2  0
 30 29  1  0
 27 31  1  0
 27 32  1  0
  2 10  1  0
 13  7  1  0
 15 30  2  0
 11 12  1  0
M  END
>  <ID>  (66) 


>  <MOLENAME>  (66) 
ERGONOVINE MALEATE

>  <therap>  (66) 
oxytocic, 5HT antagonist

>  <ref>  (66) 
Drugs (1998), 56(4), 523-535; J. Pharmacol. Exp. Ther. (1993), 265(3), 1272-9; Mol. Pharmacol. (1983), 23(3), 585-93

>  <cas#>  (66) 
129-51-1, 60-79-7 [ergonovine]

>  <source>  (66) 
ergot and Convolvulvaceae spp

>  <status>  (66) 
USP, INN, BAN, JAN

>  <tradename>  (66) 
ERGOTRATE

>  <SMILES>  (66) 
CC(CO)NC(=O)C1C=C2c3c4c(c[nH]c4ccc3)C[C@H]2N(C)C1

>  <standardized_failed>  (66) 
False

$$$$

     RDKit          2D

 18 19  0  0  0  0  0  0  0  0999 V2000
   -0.2958    0.5250    0.0000 C   0  0  0  0  0  0  0  0  0  0  0  0
    0.9417   -0.1875    0.0000 N   0  0  0  0  0  0  0  0  0  0  0  0
    0.1167   -0.1875    0.0000 C   0  0  0  0  0  0  0  0  0  0  0  0
    0.1167    1.2458    0.0000 C   0  0  0  0  0  0  0  0  0  0  0  0
    1.3542   -0.9042    0.0000 C   0  0  0  0  0  0  0  0  0  0  0  0
    2.1792   -0.9000    0.0000 C   0  0  0  0  0  0  0  0  0  0  0  0
   -0.2958    1.9583    0.0000 O   0  0  0  0  0  0  0  0  0  0  0  0
    2.5875   -1.6167    0.0000 C   0  0  0  0  0  0  0  0  0  0  0  0
    0.9417    1.2458    0.0000 O   0  0  0  0  0  0  0  0  0  0  0  0
   -1.1208    0.5333    0.0000 C   0  0  0  0  0  0  0  0  0  0  0  0
    0.9417   -1.6167    0.0000 C   0  0  0  0  0  0  0  0  0  0  0  0
   -0.2875   -0.9000    0.0000 C   0  0  0  0  0  0  0  0  0  0  0  0
    1.3500   -2.3292    0.0000 C   0  0  0  0  0  0  0  0  0  0  0  0
    2.5917   -0.1875    0.0000 C   0  0  0  0  0  0  0  0  0  0  0  0
    2.1750   -2.3292    0.0000 C   0  0  0  0  0  0  0  0  0  0  0  0
    3.4125   -1.6250    0.0000 C   0  0  0  0  0  0  0  0  0  0  0  0
   -1.5250   -0.1875    0.0000 C   0  0  0  0  0  0  0  0  0  0  0  0
   -1.1083   -0.9042    0.0000 C   0  0  0  0  0  0  0  0  0  0  0  0
  2  3  1  0
  3  1  2  0
  4  1  1  0
  5  2  1  0
  6  5  2  0
  7  4  2  0
  8  6  1  0
  9  4  1  0
 10  1  1  0
 11  5  1  0
 12  3  1  0
 13 11  2  0
 14  6  1  0
 15 13  1  0
 16  8  1  0
 17 10  2  0
 18 17  1  0
 12 18  2  0
  8 15  2  0
M  END
>  <ID>  (67) 


>  <MOLENAME>  (67) 
MEFENAMIC ACID

>  <therap>  (67) 
antiinflammatory, analgesic

>  <ref>  (67) 
N. Engl. J. Med. (1980), 302(22), 1237-43; Ann. Phys. Med. (1966), Suppl7-16, ; J. Pharmacol. Exp. Ther. (1965), 148, 373-9

>  <cas#>  (67) 
61-68-7

>  <source>  (67) 
synthetic; CI-473, CN-35355

>  <status>  (67) 
USP, INN, BAN, JAN

>  <tradename>  (67) 
PONSTEL

>  <SMILES>  (67) 
Cc1cccc(Nc2c(C(=O)O)cccc2)c1C

>  <standardized_failed>  (67) 
False

$$$$

     RDKit          2D

 43 44  0  0  0  0  0  0  0  0999 V2000
    9.0542   -1.6208    0.0000 O   0  0  0  0  0  0  0  0  0  0  0  0
    2.4292   -0.4083    0.0000 C   0  0  0  0  0  0  0  0  0  0  0  0
    7.4500   -0.8083    0.0000 C   0  0  0  0  0  0  0  0  0  0  0  0
    8.8792   -0.8083    0.0000 C   0  0  0  0  0  0  0  0  0  0  0  0
    9.8667   -1.6958    0.0000 C   0  0  0  0  0  0  0  0  0  0  0  0
    8.1625   -0.3958    0.0000 C   0  0  0  0  0  0  0  0  0  0  0  0
    6.7292   -0.3958    0.0000 C   0  0  0  0  0  0  0  0  0  0  0  0
    9.3042   -3.1958    0.0000 O   0  0  0  0  0  0  0  0  0  0  0  0
    2.4292    0.4167    0.0000 C   0  0  0  0  0  0  0  0  0  0  0  0
    1.7167   -0.8208    0.0000 C   0  0  0  0  0  0  0  0  0  0  0  0
    9.7875   -2.5208    0.0000 C   0  0  0  0  0  0  0  0  0  0  0  0
    9.5917   -0.3958    0.0000 C   0  0  0  0  0  0  0  0  0  0  0  0
   10.2125   -0.9583    0.0000 C   0  0  0  0  0  0  0  0  0  0  0  0
    6.0167   -0.8083    0.0000 C   0  0  0  0  0  0  0  0  0  0  0  0
   10.4667   -4.0333    0.0000 C   0  0  0  0  0  0  0  0  0  0  0  0
    9.6417   -3.9583    0.0000 C   0  0  0  0  0  0  0  0  0  0  0  0
    3.1417   -0.8208    0.0000 C   0  0  0  0  0  0  0  0  0  0  0  0
    7.4500   -1.6333    0.0000 O   0  0  0  0  0  0  0  0  0  0  0  0
    1.7167   -1.6583    0.0000 C   0  0  0  0  0  0  0  0  0  0  0  0
    3.1417    0.8292    0.0000 O   0  0  0  0  0  0  0  0  0  0  0  0
    1.7167    0.8292    0.0000 O   0  0  0  0  0  0  0  0  0  0  0  0
   10.9542   -3.3583    0.0000 C   0  0  0  0  0  0  0  0  0  0  0  0
   10.6125   -2.6083    0.0000 C   0  0  0  0  0  0  0  0  0  0  0  0
    3.8667   -0.4083    0.0000 C   0  0  0  0  0  0  0  0  0  0  0  0
    3.1417   -1.6583    0.0000 C   0  0  0  0  0  0  0  0  0  0  0  0
    2.4292   -2.0708    0.0000 C   0  0  0  0  0  0  0  0  0  0  0  0
    4.5875   -0.8208    0.0000 C   0  0  0  0  0  0  0  0  0  0  0  0
    5.3000   -0.3958    0.0000 C   0  0  0  0  0  0  0  0  0  0  0  0
    0.9917   -0.4083    0.0000 O   0  0  0  0  0  0  0  0  0  0  0  0
   11.2542   -4.2833    0.0000 O   0  0  0  0  0  0  0  0  0  0  0  0
    6.0292   -1.6333    0.0000 O   0  0  0  0  0  0  0  0  0  0  0  0
   10.6875   -1.5708    0.0000 C   0  0  0  0  0  0  0  0  0  0  0  0
    8.1625    0.4292    0.0000 C   0  0  0  0  0  0  0  0  0  0  0  0
    6.7292    0.4292    0.0000 C   0  0  0  0  0  0  0  0  0  0  0  0
   10.3000   -4.8458    0.0000 C   0  0  0  0  0  0  0  0  0  0  0  0
    9.6792    0.4292    0.0000 C   0  0  0  0  0  0  0  0  0  0  0  0
    9.1542   -4.6333    0.0000 C   0  0  0  0  0  0  0  0  0  0  0  0
    0.9917   -2.0708    0.0000 C   0  0  0  0  0  0  0  0  0  0  0  0
    5.2917    0.4292    0.0000 C   0  0  0  0  0  0  0  0  0  0  0  0
    7.4500    0.8417    0.0000 C   0  0  0  0  0  0  0  0  0  0  0  0
   11.2125   -2.2083    0.0000 C   0  0  0  0  0  0  0  0  0  0  0  0
    9.5167   -5.1083    0.0000 C   0  0  0  0  0  0  0  0  0  0  0  0
    4.2792    1.6875    0.0000 Na  0  0  0  0  0 15  0  0  0  0  0  0
  2 17  2  0
  3  6  1  0
  4  1  1  0
  5  1  1  0
  6  4  1  0
  7  3  1  0
  8 11  1  0
  9  2  1  0
 10  2  1  0
 11  5  1  0
 12  4  1  0
 13  5  1  0
 14  7  1  0
 15 22  1  0
 16  8  1  0
 17 24  1  0
 18  3  2  0
 19 26  1  0
 20  9  1  0
 21  9  2  0
 22 23  1  0
 23 11  1  0
 24 27  1  0
 25 17  1  0
 26 25  2  0
 27 28  1  0
 28 14  1  0
 29 10  1  0
 15 30  1  1
 14 31  1  1
 32  5  1  0
  6 33  1  6
 34  7  1  0
 35 15  1  0
 12 36  1  1
 16 37  1  6
 38 19  1  0
 28 39  1  1
 40 33  1  0
 41 32  1  0
 42 35  1  0
 12 13  1  0
 16 15  1  0
 10 19  2  0
M  CHG  2  20  -1  43   1
M  END
>  <ID>  (68) 


>  <MOLENAME>  (68) 
LASALOCID SODIUM

>  <therap>  (68) 
antibacterial

>  <ref>  (68) 
J Am Chem Soc 73: 5295 (1951); Am J Vet Res 42:433 (1981)

>  <cas#>  (68) 
25999-31-9

>  <source>  (68) 
Streptomyces lasaliensis

>  <status>  (68) 
USAN, INN, BAN

>  <tradename>  (68) 
BOVOTEC

>  <SMILES>  (68) 
CC[C@@H](C(=O)C(C)[C@@H](O)[C@H](C)CCc1c(C(=O)O)c(O)c(C)cc1)C1OC(CC)(C2CC[C@](O)(CC)[C@H](C)O2)C[C@@H]1C

>  <standardized_failed>  (68) 
False

$$$$

     RDKit          2D

 22 23  0  0  0  0  0  0  0  0999 V2000
    6.2250   -4.8375    0.0000 C   0  0  0  0  0  0  0  0  0  0  0  0
    5.5792   -4.3167    0.0000 C   0  0  0  0  0  0  0  0  0  0  0  0
    7.0250   -4.6500    0.0000 C   0  0  0  0  0  0  0  0  0  0  0  0
    6.2250   -2.9875    0.0000 C   0  0  0  0  0  0  0  0  0  0  0  0
    7.0250   -3.1667    0.0000 C   0  0  0  0  0  0  0  0  0  0  0  0
    5.5792   -3.5000    0.0000 C   0  0  0  0  0  0  0  0  0  0  0  0
    7.3792   -3.9125    0.0000 C   0  0  0  0  0  0  0  0  0  0  0  0
    6.0417   -5.6500    0.0000 C   0  0  0  0  0  0  0  0  0  0  0  0
    4.2917   -6.9500    0.0000 N   0  0  0  0  0  0  0  0  0  0  0  0
    5.2542   -5.9000    0.0000 C   0  0  0  0  0  0  0  0  0  0  0  0
    6.3292   -6.8375    0.0000 Cl  0  0  0  0  0  0  0  0  0  0  0  0
    7.4917   -5.3375    0.0000 C   0  0  0  0  0  0  0  0  0  0  0  0
    4.8667   -4.7375    0.0000 C   0  0  0  0  0  0  0  0  0  0  0  0
    5.0750   -6.7000    0.0000 C   0  0  0  0  0  0  0  0  0  0  0  0
    8.2042   -3.8500    0.0000 C   0  0  0  0  0  0  0  0  0  0  0  0
    4.8667   -3.0875    0.0000 C   0  0  0  0  0  0  0  0  0  0  0  0
    4.1042   -7.7500    0.0000 C   0  0  0  0  0  0  0  0  0  0  0  0
    3.6792   -6.3875    0.0000 C   0  0  0  0  0  0  0  0  0  0  0  0
    8.3167   -5.2792    0.0000 C   0  0  0  0  0  0  0  0  0  0  0  0
    4.1542   -4.3167    0.0000 C   0  0  0  0  0  0  0  0  0  0  0  0
    8.6667   -4.5375    0.0000 C   0  0  0  0  0  0  0  0  0  0  0  0
    4.1542   -3.5000    0.0000 C   0  0  0  0  0  0  0  0  0  0  0  0
  2  1  1  0
  3  1  1  0
  4  6  1  0
  5  7  1  0
  6  2  2  0
  7  3  2  0
  8  1  2  0
  9 14  1  0
 10  8  1  0
 12  3  1  0
 13  2  1  0
 14 10  1  0
 15  7  1  0
 16  6  1  0
 17  9  1  0
 18  9  1  0
 19 12  2  0
 20 13  2  0
 21 19  1  0
 22 20  1  0
  5  4  2  0
 21 15  2  0
 22 16  2  0
M  END
>  <ID>  (69) 


>  <MOLENAME>  (69) 
CYCLOBENZAPRINE HYDROCHLORIDE

>  <therap>  (69) 
muscle relaxant (skeletal)

>  <ref>  (69) 
Arch Int Pharmacodyn Ther 144:481 (1963); Neuropharmacology 17:445, 721 (1978); 

>  <cas#>  (69) 
6202-23-9, 303-53-7 [cyclobenzaprine]

>  <source>  (69) 
synthetic; MK-130

>  <status>  (69) 
USP, INN

>  <tradename>  (69) 
FLEXERIL

>  <SMILES>  (69) 
CN(C)CCC=C1c2c(C=Cc3c1cccc3)cccc2

>  <standardized_failed>  (69) 
False

$$$$

     RDKit          2D

 35 36  0  0  0  0  0  0  0  0999 V2000
   -2.0958   -0.4250    0.0000 C   0  0  0  0  0  0  0  0  0  0  0  0
    2.7917   -3.3750    0.0000 C   0  0  0  0  0  0  0  0  0  0  0  0
   -1.6875   -1.1417    0.0000 C   0  0  0  0  0  0  0  0  0  0  0  0
   -1.6708    0.2833    0.0000 C   0  0  0  0  0  0  0  0  0  0  0  0
    3.2167   -2.6667    0.0000 C   0  0  0  0  0  0  0  0  0  0  0  0
    1.9667   -3.3542    0.0000 C   0  0  0  0  0  0  0  0  0  0  0  0
    0.7792   -1.1875    0.0000 C   0  0  0  0  0  0  0  0  0  0  0  0
    2.0042   -1.9250    0.0000 C   0  0  0  0  0  0  0  0  0  0  0  0
   -0.4458   -0.4500    0.0000 C   0  0  0  0  0  0  0  0  0  0  0  0
    0.3792   -0.4667    0.0000 S   0  0  0  0  0  0  0  0  0  0  0  0
    1.6042   -1.2042    0.0000 S   0  0  0  0  0  0  0  0  0  0  0  0
   -2.1125   -1.8500    0.0000 C   0  0  0  0  0  0  0  0  0  0  0  0
   -2.0708    1.0000    0.0000 C   0  0  0  0  0  0  0  0  0  0  0  0
    4.0417   -2.6792    0.0000 C   0  0  0  0  0  0  0  0  0  0  0  0
    1.5417   -4.0542    0.0000 C   0  0  0  0  0  0  0  0  0  0  0  0
    1.5750   -2.6292    0.0000 C   0  0  0  0  0  0  0  0  0  0  0  0
    2.8250   -1.9417    0.0000 C   0  0  0  0  0  0  0  0  0  0  0  0
   -0.8708   -1.1542    0.0000 C   0  0  0  0  0  0  0  0  0  0  0  0
   -0.8458    0.2708    0.0000 C   0  0  0  0  0  0  0  0  0  0  0  0
   -2.9208   -0.4125    0.0000 O   0  0  0  0  0  0  0  0  0  0  0  0
    3.1917   -4.0917    0.0000 O   0  0  0  0  0  0  0  0  0  0  0  0
    1.0042   -0.3917    0.0000 C   0  0  0  0  0  0  0  0  0  0  0  0
    0.3542   -1.8917    0.0000 C   0  0  0  0  0  0  0  0  0  0  0  0
   -2.1000    1.7583    0.0000 C   0  0  0  0  0  0  0  0  0  0  0  0
   -2.9375   -1.8375    0.0000 C   0  0  0  0  0  0  0  0  0  0  0  0
   -1.7125   -2.5667    0.0000 C   0  0  0  0  0  0  0  0  0  0  0  0
   -2.6000   -2.2750    0.0000 C   0  0  0  0  0  0  0  0  0  0  0  0
   -2.8958    1.0125    0.0000 C   0  0  0  0  0  0  0  0  0  0  0  0
    4.4417   -3.4042    0.0000 C   0  0  0  0  0  0  0  0  0  0  0  0
    4.4750   -1.9792    0.0000 C   0  0  0  0  0  0  0  0  0  0  0  0
    3.8167   -3.4792    0.0000 C   0  0  0  0  0  0  0  0  0  0  0  0
   -1.2708    1.2083    0.0000 C   0  0  0  0  0  0  0  0  0  0  0  0
    0.7167   -4.0375    0.0000 C   0  0  0  0  0  0  0  0  0  0  0  0
    1.9375   -4.7792    0.0000 C   0  0  0  0  0  0  0  0  0  0  0  0
    0.9667   -3.4625    0.0000 C   0  0  0  0  0  0  0  0  0  0  0  0
  2  5  2  0
  3  1  2  0
  4  1  1  0
  5 17  1  0
  6 16  2  0
  7 10  1  0
  8 11  1  0
  9 19  1  0
 10  9  1  0
 11  7  1  0
 12  3  1  0
 13  4  1  0
 14  5  1  0
 15  6  1  0
 16  8  1  0
 17  8  2  0
 18  3  1  0
 19  4  2  0
 20  1  1  0
 21  2  1  0
 22  7  1  0
 23  7  1  0
 24 13  1  0
 25 12  1  0
 26 12  1  0
 27 12  1  0
 28 13  1  0
 29 14  1  0
 30 14  1  0
 31 14  1  0
 32 13  1  0
 33 15  1  0
 34 15  1  0
 35 15  1  0
 18  9  2  0
  6  2  1  0
M  END
>  <ID>  (70) 


>  <MOLENAME>  (70) 
PROBUCOL

>  <therap>  (70) 
antihyperlipidemic

>  <ref>  (70) 
Drugs 15:409 (1978); Am J Cardiol 57:1H (1986); N Engl J Med 337:365 (1997): Circulation 105:2549 (2002).

>  <cas#>  (70) 
23288-49-5

>  <source>  (70) 
synthetic; DH-581

>  <status>  (70) 
USP, INN, BAN, JAN

>  <tradename>  (70) 
LORELCO

>  <SMILES>  (70) 
CC(C)(Sc1cc(C(C)(C)C)c(O)c(C(C)(C)C)c1)Sc1cc(C(C)(C)C)c(O)c(C(C)(C)C)c1

>  <standardized_failed>  (70) 
False

$$$$

     RDKit          2D

 22 24  0  0  0  0  0  0  0  0999 V2000
    7.4875   -5.8750    0.0000 C   0  0  0  0  0  0  0  0  0  0  0  0
    7.4042   -6.6917    0.0000 N   0  0  0  0  0  0  0  0  0  0  0  0
    6.7417   -5.5375    0.0000 N   0  0  0  0  0  0  0  0  0  0  0  0
    8.2042   -5.4542    0.0000 N   0  0  0  0  0  0  0  0  0  0  0  0
    6.5917   -6.8667    0.0000 C   0  0  0  0  0  0  0  0  0  0  0  0
    8.2042   -4.6292    0.0000 C   0  0  0  0  0  0  0  0  0  0  0  0
    6.1792   -6.1542    0.0000 C   0  0  0  0  0  0  0  0  0  0  0  0
    5.3542   -7.5792    0.0000 C   0  0  0  0  0  0  0  0  0  0  0  0
    4.9292   -8.3042    0.0000 C   0  0  0  0  0  0  0  0  0  0  0  0
    6.1792   -7.5792    0.0000 C   0  0  0  0  0  0  0  0  0  0  0  0
    8.9167   -4.2167    0.0000 O   0  0  0  0  0  0  0  0  0  0  0  0
    4.9417   -6.8667    0.0000 C   0  0  0  0  0  0  0  0  0  0  0  0
    5.3417   -9.0167    0.0000 O   0  0  0  0  0  0  0  0  0  0  0  0
    5.3542   -6.1542    0.0000 C   0  0  0  0  0  0  0  0  0  0  0  0
    4.1042   -8.3000    0.0000 C   0  0  0  0  0  0  0  0  0  0  0  0
    7.4917   -4.2167    0.0000 O   0  0  0  0  0  0  0  0  0  0  0  0
    3.6917   -9.0167    0.0000 C   0  0  0  0  0  0  0  0  0  0  0  0
    3.6917   -7.5875    0.0000 C   0  0  0  0  0  0  0  0  0  0  0  0
    6.7750   -4.6292    0.0000 C   0  0  0  0  0  0  0  0  0  0  0  0
    2.8625   -9.0167    0.0000 C   0  0  0  0  0  0  0  0  0  0  0  0
    2.8625   -7.5875    0.0000 C   0  0  0  0  0  0  0  0  0  0  0  0
    2.4417   -8.3000    0.0000 C   0  0  0  0  0  0  0  0  0  0  0  0
  2  1  2  0
  3  1  1  0
  4  1  1  0
  5  2  1  0
  6  4  1  0
  7  3  1  0
  8 10  1  0
  9  8  1  0
 10  5  2  0
 11  6  2  0
 12 14  1  0
 13  9  2  0
 14  7  2  0
 15  9  1  0
 16  6  1  0
 17 15  2  0
 18 15  1  0
 19 16  1  0
 20 17  1  0
 21 18  2  0
 22 21  1  0
  7  5  1  0
  8 12  2  0
 22 20  2  0
M  END
>  <ID>  (71) 


>  <MOLENAME>  (71) 
MEBENDAZOLE

>  <therap>  (71) 
anthelmintic

>  <ref>  (71) 
Parasitol. Today (2000), 16(2), 71-77; Am. J. Trop. Med. Hyg. (1974), 23(2), 151-3; Parasitology (1975), 70(2), 273-85

>  <cas#>  (71) 
31431-39-7

>  <source>  (71) 
synthetic

>  <status>  (71) 
USP, INN, BAN, JAN

>  <tradename>  (71) 
VERMOX

>  <SMILES>  (71) 
COC(=O)Nc1nc2cc(C(=O)c3ccccc3)ccc2[nH]1

>  <standardized_failed>  (71) 
False

$$$$

     RDKit          2D

 25 27  0  0  0  0  0  0  0  0999 V2000
    4.6000   -2.4542    0.0000 C   0  0  0  0  0  0  0  0  0  0  0  0
    4.1042   -1.7875    0.0000 N   0  0  0  0  0  0  0  0  0  0  0  0
    4.1167   -3.1250    0.0000 N   0  0  0  0  0  0  0  0  0  0  0  0
    5.4250   -2.4500    0.0000 S   0  0  0  0  0  0  0  0  0  0  0  0
    6.6667   -3.1542    0.0000 C   0  0  0  0  0  0  0  0  0  0  0  0
    5.8417   -3.1625    0.0000 C   0  0  0  0  0  0  0  0  0  0  0  0
    9.5292   -0.9917    0.0000 C   0  0  0  0  0  0  0  0  0  0  0  0
    7.0667   -2.4417    0.0000 C   0  0  0  0  0  0  0  0  0  0  0  0
    3.3250   -2.0500    0.0000 C   0  0  0  0  0  0  0  0  0  0  0  0
    3.3292   -2.8750    0.0000 C   0  0  0  0  0  0  0  0  0  0  0  0
    7.0792   -3.8667    0.0000 N   0  0  0  0  0  0  0  0  0  0  0  0
    7.8917   -2.4292    0.0000 C   0  0  0  0  0  0  0  0  0  0  0  0
    5.8292   -1.7292    0.0000 O   0  0  0  0  0  0  0  0  0  0  0  0
    8.2917   -1.7167    0.0000 O   0  0  0  0  0  0  0  0  0  0  0  0
    9.1167   -1.7042    0.0000 C   0  0  0  0  0  0  0  0  0  0  0  0
   10.3542   -0.9792    0.0000 F   0  0  0  0  0  0  0  0  0  0  0  0
    9.1042   -0.2792    0.0000 F   0  0  0  0  0  0  0  0  0  0  0  0
    9.9375   -0.2750    0.0000 F   0  0  0  0  0  0  0  0  0  0  0  0
    7.9042   -3.8667    0.0000 C   0  0  0  0  0  0  0  0  0  0  0  0
    8.3125   -3.1500    0.0000 C   0  0  0  0  0  0  0  0  0  0  0  0
    6.6500   -1.7292    0.0000 C   0  0  0  0  0  0  0  0  0  0  0  0
    2.6042   -1.6375    0.0000 C   0  0  0  0  0  0  0  0  0  0  0  0
    2.6042   -3.2917    0.0000 C   0  0  0  0  0  0  0  0  0  0  0  0
    1.8917   -2.8792    0.0000 C   0  0  0  0  0  0  0  0  0  0  0  0
    1.8917   -2.0500    0.0000 C   0  0  0  0  0  0  0  0  0  0  0  0
  2  1  2  0
  3  1  1  0
  4  1  1  0
  5  6  1  0
  4  6  1  6
  7 15  1  0
  8  5  2  0
  9  2  1  0
 10  3  1  0
 11  5  1  0
 12  8  1  0
 13  4  2  0
 14 12  1  0
 15 14  1  0
 16  7  1  0
 17  7  1  0
 18  7  1  0
 19 11  2  0
 20 19  1  0
 21  8  1  0
 22  9  2  0
 23 10  2  0
 24 23  1  0
 25 22  1  0
  9 10  1  0
 25 24  2  0
 12 20  2  0
M  END
>  <ID>  (72) 


>  <MOLENAME>  (72) 
DEXLANSOPRAZOLE

>  <therap>  (72) 
antiulcer, proton pump inhibitor

>  <ref>  (72) 
Aliment Pharmacol Ther 29:928 (2009)

>  <cas#>  (72) 
138530-94-6

>  <source>  (72) 
synthetic; enantomer of lansoprazole (01503926)

>  <status>  (72) 
USAN, INN

>  <tradename>  (72) 
DEXILANT

>  <SMILES>  (72) 
Cc1c(OCC(F)(F)F)ccnc1C[S@@+]([O-])c1nc2ccccc2[nH]1

>  <standardized_failed>  (72) 
False

$$$$

     RDKit          2D

 21 18  0  0  0  0  0  0  0  0999 V2000
    4.4667   -2.2792    0.0000 C   0  0  0  0  0  0  0  0  0  0  0  0
    3.7542   -2.6917    0.0000 P   0  0  0  0  0  0  0  0  0  0  0  0
    4.4667   -1.4542    0.0000 P   0  0  0  0  0  0  0  0  0  0  0  0
    5.1792   -2.6917    0.0000 C   0  0  0  0  0  0  0  0  0  0  0  0
    3.0375   -2.2792    0.0000 O   0  0  0  0  0  0  0  0  0  0  0  0
    3.7542   -3.5167    0.0000 O   0  0  0  0  0  0  0  0  0  0  0  0
    5.1792   -1.0417    0.0000 O   0  0  0  0  0  0  0  0  0  0  0  0
    3.7500   -1.8667    0.0000 O   0  0  0  0  0  0  0  0  0  0  0  0
    3.0375   -3.1000    0.0000 O   0  0  0  0  0  0  0  0  0  0  0  0
    4.4542   -0.6292    0.0000 O   0  0  0  0  0  0  0  0  0  0  0  0
    3.7500   -1.0417    0.0000 O   0  0  0  0  0  0  0  0  0  0  0  0
    5.8917   -2.2792    0.0000 C   0  0  0  0  0  0  0  0  0  0  0  0
    6.6042   -2.6917    0.0000 N   0  0  0  0  0  0  0  0  0  0  0  0
    1.3792   -2.2542    0.0000 Na  0  0  0  0  0 15  0  0  0  0  0  0
    7.2125   -1.1167    0.0000 O   0  0  0  0  0  0  0  0  0  0  0  0
    7.3167   -2.2792    0.0000 C   0  0  0  0  0  0  0  0  0  0  0  0
    6.6042   -3.5167    0.0000 C   0  0  0  0  0  0  0  0  0  0  0  0
    8.0292   -2.6917    0.0000 C   0  0  0  0  0  0  0  0  0  0  0  0
    9.4542   -2.6917    0.0000 C   0  0  0  0  0  0  0  0  0  0  0  0
    8.7417   -2.2792    0.0000 C   0  0  0  0  0  0  0  0  0  0  0  0
   10.1667   -2.2792    0.0000 C   0  0  0  0  0  0  0  0  0  0  0  0
  2  1  1  0
  3  1  1  0
  4  1  1  0
  5  2  1  0
  6  2  2  0
  7  3  2  0
  8  1  1  0
  9  2  1  0
 10  3  1  0
 11  3  1  0
 12  4  1  0
 13 12  1  0
 16 13  1  0
 17 13  1  0
 18 16  1  0
 19 20  1  0
 20 18  1  0
 21 19  1  0
M  CHG  2   5  -1  14   1
M  END
>  <ID>  (73) 


>  <MOLENAME>  (73) 
IBANDRONATE SODIUM

>  <therap>  (73) 
bone resorption inhibitor, anthypercalcemic

>  <ref>  (73) 
Therapeut Clin Risk Man 2:3 (2006); Bone 44:423 (2009); J Gastrointestin Liver Dis 20::141 (2011)

>  <cas#>  (73) 
138926-19-9

>  <source>  (73) 
synthetic; BM-210955

>  <status>  (73) 
USAN, INN, BAN, JAN

>  <tradename>  (73) 
BONIVA

>  <SMILES>  (73) 
CCCCCN(C)CCC(O)(P(=O)(O)O)P(=O)(O)O

>  <standardized_failed>  (73) 
False

$$$$

     RDKit          2D

  5  5  0  0  0  0  0  0  0  0999 V2000
    5.7292   -3.4417    0.0000 C   0  0  0  0  0  0  0  0  0  0  0  0
    6.1417   -4.1542    0.0000 O   0  0  0  0  0  0  0  0  0  0  0  0
    5.0042   -3.8542    0.0000 C   0  0  0  0  0  0  0  0  0  0  0  0
    5.9417   -2.6417    0.0000 O   0  0  0  0  0  0  0  0  0  0  0  0
    5.4167   -4.5667    0.0000 C   0  0  0  0  0  0  0  0  0  0  0  0
  2  1  1  0
  3  1  1  0
  4  1  2  0
  5  3  1  0
  2  5  1  0
M  END
>  <ID>  (74) 


>  <MOLENAME>  (74) 
PROPIOLACTONE

>  <therap>  (74) 
antiinfective

>  <ref>  (74) 
Appl. Microbiol 7:199 (1959); Appl Environ Microbiol 9:278 (1961); IARC Monographs 4:259 (1974)

>  <cas#>  (74) 
57-57-8

>  <source>  (74) 
synthetic; NSC-21626

>  <status>  (74) 
USAN, INN

>  <tradename>  (74) 
BETAPRONE

>  <SMILES>  (74) 
O=C1CCO1

>  <standardized_failed>  (74) 
False

$$$$

     RDKit          2D

 24 24  0  0  0  0  0  0  0  0999 V2000
    2.9292   -1.7042    0.0000 C   0  0  0  0  0  0  0  0  0  0  0  0
    4.5792   -1.6792    0.0000 C   0  0  0  0  0  0  0  0  0  0  0  0
    4.1792   -2.4000    0.0000 N   0  0  0  0  0  0  0  0  0  0  0  0
    3.3542   -2.4125    0.0000 C   0  0  0  0  0  0  0  0  0  0  0  0
    2.1042   -1.7167    0.0000 N   0  0  0  0  0  0  0  0  0  0  0  0
    1.7292   -3.8667    0.0000 C   0  0  0  0  0  0  0  0  0  0  0  0
    3.3292   -0.9875    0.0000 O   0  0  0  0  0  0  0  0  0  0  0  0
    4.1542   -0.9667    0.0000 O   0  0  0  0  0  0  0  0  0  0  0  0
    5.4042   -1.6667    0.0000 C   0  0  0  0  0  0  0  0  0  0  0  0
    2.9542   -3.1375    0.0000 C   0  0  0  0  0  0  0  0  0  0  0  0
    2.1542   -4.5792    0.0000 O   0  0  0  0  0  0  0  0  0  0  0  0
    2.1292   -3.1500    0.0000 C   0  0  0  0  0  0  0  0  0  0  0  0
    0.9042   -3.8792    0.0000 O   0  0  0  0  0  0  0  0  0  0  0  0
    1.6792   -1.0125    0.0000 C   0  0  0  0  0  0  0  0  0  0  0  0
    1.7042   -2.4417    0.0000 C   0  0  0  0  0  0  0  0  0  0  0  0
    5.8292   -2.3750    0.0000 C   0  0  0  0  0  0  0  0  0  0  0  0
    5.8042   -0.9417    0.0000 C   0  0  0  0  0  0  0  0  0  0  0  0
    0.8542   -1.0250    0.0000 C   0  0  0  0  0  0  0  0  0  0  0  0
    0.8792   -2.4542    0.0000 C   0  0  0  0  0  0  0  0  0  0  0  0
    0.4292   -0.3167    0.0000 C   0  0  0  0  0  0  0  0  0  0  0  0
    0.4792   -3.1750    0.0000 C   0  0  0  0  0  0  0  0  0  0  0  0
    6.6500   -2.3625    0.0000 C   0  0  0  0  0  0  0  0  0  0  0  0
    6.6292   -0.9375    0.0000 C   0  0  0  0  0  0  0  0  0  0  0  0
    7.0500   -1.6417    0.0000 C   0  0  0  0  0  0  0  0  0  0  0  0
  2  3  1  0
  3  4  1  0
  4  1  1  0
  5  1  1  0
  6 12  1  0
  7  1  2  0
  8  2  2  0
  9  2  1  0
 10  4  1  0
 11  6  2  0
 12 10  1  0
 13  6  1  0
 14  5  1  0
 15  5  1  0
 16  9  2  0
 17  9  1  0
 18 14  1  0
 19 15  1  0
 20 18  1  0
 21 19  1  0
 22 16  1  0
 23 17  2  0
 24 23  1  0
 22 24  2  0
M  END
>  <ID>  (75) 


>  <MOLENAME>  (75) 
PROGLUMIDE

>  <therap>  (75) 
anticholinergic

>  <ref>  (75) 
Minerva Med 58:3653 (1967); Eur J Pharmacol 64:69 (1980); Science 219:1449 (1983)

>  <cas#>  (75) 
6620-60-6

>  <source>  (75) 
synthetic; W-5219

>  <status>  (75) 
USAN, INN, BAN, JAN

>  <tradename>  (75) 
NULSA

>  <SMILES>  (75) 
CCCN(CCC)C(=O)C(CCC(=O)O)NC(=O)c1ccccc1

>  <standardized_failed>  (75) 
False

$$$$

     RDKit          2D

 21 23  0  0  0  0  0  0  0  0999 V2000
    6.9292   -1.5417    0.0000 N   0  0  0  0  0  0  0  0  0  0  0  0
    7.4042   -0.8792    0.0000 C   0  0  0  0  0  0  0  0  0  0  0  0
    6.9167   -0.2167    0.0000 N   0  0  0  0  0  0  0  0  0  0  0  0
    6.1500   -1.2917    0.0000 C   0  0  0  0  0  0  0  0  0  0  0  0
    6.1417   -0.4792    0.0000 C   0  0  0  0  0  0  0  0  0  0  0  0
    4.7250   -0.4875    0.0000 C   0  0  0  0  0  0  0  0  0  0  0  0
    5.4375   -0.0750    0.0000 C   0  0  0  0  0  0  0  0  0  0  0  0
    2.5792   -0.0792    0.0000 C   0  0  0  0  0  0  0  0  0  0  0  0
    5.4375   -1.7167    0.0000 C   0  0  0  0  0  0  0  0  0  0  0  0
    3.2917   -0.4917    0.0000 C   0  0  0  0  0  0  0  0  0  0  0  0
    4.0042   -0.0792    0.0000 O   0  0  0  0  0  0  0  0  0  0  0  0
    4.7250   -1.3042    0.0000 C   0  0  0  0  0  0  0  0  0  0  0  0
    1.8667   -0.5000    0.0000 C   0  0  0  0  0  0  0  0  0  0  0  0
    8.2292   -0.8792    0.0000 S   0  0  0  0  0  0  0  0  0  0  0  0
    2.5750    0.7458    0.0000 Cl  0  0  0  0  0  0  0  0  0  0  0  0
    4.0042   -1.7167    0.0000 Cl  0  0  0  0  0  0  0  0  0  0  0  0
    1.1542   -0.0875    0.0000 Cl  0  0  0  0  0  0  0  0  0  0  0  0
    3.2917   -1.3250    0.0000 C   0  0  0  0  0  0  0  0  0  0  0  0
    2.5792   -1.7375    0.0000 C   0  0  0  0  0  0  0  0  0  0  0  0
    1.8667   -1.3250    0.0000 C   0  0  0  0  0  0  0  0  0  0  0  0
    8.6417   -1.5917    0.0000 C   0  0  0  0  0  0  0  0  0  0  0  0
  2  1  2  0
  3  2  1  0
  4  1  1  0
  5  4  2  0
  6 12  1  0
  7  5  1  0
  8 10  2  0
  9  4  1  0
 10 11  1  0
 11  6  1  0
 12  9  2  0
 13  8  1  0
 14  2  1  0
 15  8  1  0
 16 12  1  0
 17 13  1  0
 18 10  1  0
 19 18  2  0
 20 19  1  0
 21 14  1  0
  3  5  1  0
  7  6  2  0
 13 20  2  0
M  END
>  <ID>  (76) 


>  <MOLENAME>  (76) 
TRICLABENDAZOLE

>  <therap>  (76) 
anthelmintic

>  <ref>  (76) 
Vet Parasitol 13:145 (1983); Vet Rec 113:315 (1983)

>  <cas#>  (76) 
68786-66-3

>  <source>  (76) 
synthetic

>  <status>  (76) 
INN, BAN

>  <tradename>  (76) 
nan

>  <SMILES>  (76) 
CSc1nc2c(cc(Oc3c(Cl)c(Cl)ccc3)c(Cl)c2)[nH]1

>  <standardized_failed>  (76) 
False

$$$$

     RDKit          2D

 19 19  0  0  0  0  0  0  0  0999 V2000
    3.2500   -2.0375    0.0000 C   0  0  0  0  0  0  0  0  0  0  0  0
    3.2542   -1.2125    0.0000 O   0  0  0  0  0  0  0  0  0  0  0  0
   -3.1750   -0.8042    0.0000 N   0  0  0  0  0  0  0  0  0  0  0  0
    2.5375   -2.4500    0.0000 C   0  0  0  0  0  0  0  0  0  0  0  0
   -0.3208   -0.8000    0.0000 O   0  0  0  0  0  0  0  0  0  0  0  0
    3.9667   -2.4500    0.0000 N   0  0  0  0  0  0  0  0  0  0  0  0
   -1.7458   -0.8042    0.0000 C   0  0  0  0  0  0  0  0  0  0  0  0
    0.4000   -1.2125    0.0000 C   0  0  0  0  0  0  0  0  0  0  0  0
   -2.4583   -1.2167    0.0000 C   0  0  0  0  0  0  0  0  0  0  0  0
    1.8167   -2.0375    0.0000 C   0  0  0  0  0  0  0  0  0  0  0  0
   -1.0333   -1.2167    0.0000 C   0  0  0  0  0  0  0  0  0  0  0  0
    1.1042   -0.7917    0.0000 C   0  0  0  0  0  0  0  0  0  0  0  0
    0.4000   -2.0375    0.0000 C   0  0  0  0  0  0  0  0  0  0  0  0
    1.8167   -1.2125    0.0000 C   0  0  0  0  0  0  0  0  0  0  0  0
    1.1042   -2.4417    0.0000 C   0  0  0  0  0  0  0  0  0  0  0  0
   -1.7500    0.0208    0.0000 O   0  0  0  0  0  0  0  0  0  0  0  0
   -3.8958   -1.2250    0.0000 C   0  0  0  0  0  0  0  0  0  0  0  0
   -4.6083   -0.8125    0.0000 C   0  0  0  0  0  0  0  0  0  0  0  0
   -3.8958   -2.0500    0.0000 C   0  0  0  0  0  0  0  0  0  0  0  0
  2  1  2  0
  3  9  1  0
  4  1  1  0
  5  8  1  0
  6  1  1  0
  7 11  1  0
  8 13  2  0
  9  7  1  0
 10  4  1  0
 11  5  1  0
 12 14  2  0
 13 15  1  0
 14 10  1  0
 15 10  2  0
 16  7  1  0
 17  3  1  0
 18 17  1  0
 19 17  1  0
 12  8  1  0
M  END
>  <ID>  (77) 


>  <MOLENAME>  (77) 
ATENOLOL

>  <therap>  (77) 
beta adrenergic blocker

>  <ref>  (77) 
Drugs Exper Clin Res 6:639 (1980); Drugs 25 Suppl 2:1 (9183)

>  <cas#>  (77) 
29122-68-7

>  <source>  (77) 
synthetic

>  <status>  (77) 
USP, INN, BAN, JAN

>  <tradename>  (77) 
TENORMIN

>  <SMILES>  (77) 
CC(C)NCC(O)COc1ccc(CC(N)=O)cc1

>  <standardized_failed>  (77) 
False

$$$$

     RDKit          2D

 35 38  0  0  0  0  0  0  0  0999 V2000
    5.1500   -1.1792    0.0000 C   0  0  0  0  0  0  0  0  0  0  0  0
    4.4375   -1.5875    0.0000 C   0  0  0  0  0  0  0  0  0  0  0  0
    4.4375   -2.4208    0.0000 N   0  0  0  0  0  0  0  0  0  0  0  0
    3.7167   -1.1667    0.0000 C   0  0  0  0  0  0  0  0  0  0  0  0
    5.8625   -1.5917    0.0000 O   0  0  0  0  0  0  0  0  0  0  0  0
    3.0000   -1.5875    0.0000 C   0  0  0  0  0  0  0  0  0  0  0  0
    6.7000   -1.1208    0.0000 C   0  0  0  0  0  0  0  0  0  0  0  0
    8.4208   -1.3750    0.0000 N   0  0  0  0  0  0  0  0  0  0  0  0
    7.4000   -1.5250    0.0000 C   0  0  0  0  0  0  0  0  0  0  0  0
    3.7125   -2.8333    0.0000 C   0  0  0  0  0  0  0  0  0  0  0  0
    9.9292   -1.7917    0.0000 C   0  0  0  0  0  0  0  0  0  0  0  0
    9.4583   -3.1417    0.0000 C   0  0  0  0  0  0  0  0  0  0  0  0
    2.9958   -2.4208    0.0000 C   0  0  0  0  0  0  0  0  0  0  0  0
    5.1458   -0.3542    0.0000 O   0  0  0  0  0  0  0  0  0  0  0  0
    6.6958   -0.2958    0.0000 C   0  0  0  0  0  0  0  0  0  0  0  0
    3.7167   -0.3500    0.0000 C   0  0  0  0  0  0  0  0  0  0  0  0
   10.4000   -1.5167    0.0000 O   0  0  0  0  0  0  0  0  0  0  0  0
    8.9833   -3.4167    0.0000 O   0  0  0  0  0  0  0  0  0  0  0  0
    7.8792   -0.0417    0.0000 C   0  0  0  0  0  0  0  0  0  0  0  0
    7.0167   -0.8125    0.0000 C   0  0  0  0  0  0  0  0  0  0  0  0
    8.5917   -0.4542    0.0000 C   0  0  0  0  0  0  0  0  0  0  0  0
    8.0500   -0.5000    0.0000 C   0  0  0  0  0  0  0  0  0  0  0  0
    9.4583   -2.6042    0.0000 C   0  0  0  0  0  0  0  0  0  0  0  0
    9.9292   -2.3292    0.0000 C   0  0  0  0  0  0  0  0  0  0  0  0
    9.4583   -1.5167    0.0000 O   0  0  0  0  0  0  0  0  0  0  0  0
    9.9292   -3.4167    0.0000 O   0  0  0  0  0  0  0  0  0  0  0  0
    2.2833   -1.1750    0.0000 C   0  0  0  0  0  0  0  0  0  0  0  0
    2.2833   -2.8292    0.0000 C   0  0  0  0  0  0  0  0  0  0  0  0
    3.0042    0.0625    0.0000 C   0  0  0  0  0  0  0  0  0  0  0  0
    4.4333    0.0625    0.0000 C   0  0  0  0  0  0  0  0  0  0  0  0
    1.5708   -1.5917    0.0000 C   0  0  0  0  0  0  0  0  0  0  0  0
    1.5708   -2.4167    0.0000 C   0  0  0  0  0  0  0  0  0  0  0  0
    4.4333    0.8875    0.0000 C   0  0  0  0  0  0  0  0  0  0  0  0
    3.0000    0.8833    0.0000 C   0  0  0  0  0  0  0  0  0  0  0  0
    3.7167    1.3000    0.0000 C   0  0  0  0  0  0  0  0  0  0  0  0
  2  1  1  0
  3  2  1  0
  4  2  1  6
  5  1  1  0
  6  4  1  0
  7  5  1  6
  8  9  1  0
  9  7  1  0
 10  3  1  0
 12 23  1  0
 13 10  1  0
 14  1  2  0
 15  7  1  0
  4 16  1  0
 17 11  2  0
 18 12  2  0
 19 15  1  0
 20 15  1  0
 21  8  1  0
 22  8  1  0
 23 24  1  0
 24 11  1  0
 25 11  1  0
 26 12  1  0
 27  6  2  0
 28 13  2  0
 29 16  2  0
 30 16  1  0
 31 27  1  0
 32 28  1  0
 33 30  2  0
 34 29  1  0
 35 34  2  0
 13  6  1  0
 22 20  1  0
 19 21  1  0
 32 31  2  0
 35 33  1  0
M  END
>  <ID>  (78) 


>  <MOLENAME>  (78) 
SOLIFENACIN SUCCINATE

>  <therap>  (78) 
muscarinic M3 antagonist

>  <ref>  (78) 
Curr Med Res Opin21:71 (2005); Drugs 66:175 (2006)

>  <cas#>  (78) 
242478-37-1

>  <source>  (78) 
synthetic; YM-905, YM-67905

>  <status>  (78) 
USAN, INN

>  <tradename>  (78) 
VESICARE

>  <SMILES>  (78) 
O=C(O[C@H]1CN2CCC1CC2)C1NCc2ccccc2[C@@H]1c1ccccc1

>  <standardized_failed>  (78) 
False

$$$$

     RDKit          2D

 34 38  0  0  0  0  0  0  0  0999 V2000
    4.8500   -9.2667    0.0000 C   0  0  0  0  0  0  0  0  0  0  0  0
    4.3667   -8.5917    0.0000 N   0  0  0  0  0  0  0  0  0  0  0  0
    4.3667   -9.9292    0.0000 N   0  0  0  0  0  0  0  0  0  0  0  0
    3.5792   -8.8500    0.0000 C   0  0  0  0  0  0  0  0  0  0  0  0
    3.5792   -9.6750    0.0000 C   0  0  0  0  0  0  0  0  0  0  0  0
    4.5417   -7.7917    0.0000 C   0  0  0  0  0  0  0  0  0  0  0  0
    4.8917   -6.1792    0.0000 N   0  0  0  0  0  0  0  0  0  0  0  0
    5.6750   -9.2667    0.0000 O   0  0  0  0  0  0  0  0  0  0  0  0
    5.3250   -7.5375    0.0000 C   0  0  0  0  0  0  0  0  0  0  0  0
    3.9292   -7.2375    0.0000 C   0  0  0  0  0  0  0  0  0  0  0  0
    6.8375   -4.0792    0.0000 C   0  0  0  0  0  0  0  0  0  0  0  0
    7.0167   -3.2792    0.0000 C   0  0  0  0  0  0  0  0  0  0  0  0
    7.4417   -4.6417    0.0000 C   0  0  0  0  0  0  0  0  0  0  0  0
    5.5000   -6.7292    0.0000 C   0  0  0  0  0  0  0  0  0  0  0  0
    4.1042   -6.4292    0.0000 C   0  0  0  0  0  0  0  0  0  0  0  0
    8.2292   -4.4000    0.0000 C   0  0  0  0  0  0  0  0  0  0  0  0
    7.2542   -5.4375    0.0000 C   0  0  0  0  0  0  0  0  0  0  0  0
    7.8042   -3.0417    0.0000 C   0  0  0  0  0  0  0  0  0  0  0  0
    6.4167   -2.7250    0.0000 C   0  0  0  0  0  0  0  0  0  0  0  0
    7.3875   -1.6792    0.0000 C   0  0  0  0  0  0  0  0  0  0  0  0
    8.6417   -5.7542    0.0000 C   0  0  0  0  0  0  0  0  0  0  0  0
    7.8625   -5.9917    0.0000 C   0  0  0  0  0  0  0  0  0  0  0  0
    6.6000   -1.9250    0.0000 C   0  0  0  0  0  0  0  0  0  0  0  0
    7.9917   -2.2375    0.0000 C   0  0  0  0  0  0  0  0  0  0  0  0
    8.8292   -4.9625    0.0000 C   0  0  0  0  0  0  0  0  0  0  0  0
    9.2500   -6.3042    0.0000 F   0  0  0  0  0  0  0  0  0  0  0  0
    7.5667   -0.8792    0.0000 F   0  0  0  0  0  0  0  0  0  0  0  0
    5.0750   -5.3667    0.0000 C   0  0  0  0  0  0  0  0  0  0  0  0
    2.8667   -8.4375    0.0000 C   0  0  0  0  0  0  0  0  0  0  0  0
    2.8667  -10.0875    0.0000 C   0  0  0  0  0  0  0  0  0  0  0  0
    5.8667   -5.1250    0.0000 C   0  0  0  0  0  0  0  0  0  0  0  0
    6.0500   -4.3167    0.0000 C   0  0  0  0  0  0  0  0  0  0  0  0
    2.1542   -8.8500    0.0000 C   0  0  0  0  0  0  0  0  0  0  0  0
    2.1542   -9.6750    0.0000 C   0  0  0  0  0  0  0  0  0  0  0  0
  2  1  1  0
  3  1  1  0
  4  2  1  0
  5  3  1  0
  6  2  1  0
  7 15  1  0
  8  1  2  0
  9  6  1  0
 10  6  1  0
 11 32  1  0
 12 11  1  0
 13 11  1  0
 14  9  1  0
 15 10  1  0
 16 13  2  0
 17 13  1  0
 18 12  2  0
 19 12  1  0
 20 23  1  0
 21 22  1  0
 22 17  2  0
 23 19  2  0
 24 18  1  0
 25 16  1  0
 26 21  1  0
 27 20  1  0
 28  7  1  0
 29  4  2  0
 30  5  2  0
 31 28  1  0
 32 31  1  0
 33 29  1  0
 34 30  1  0
  4  5  1  0
 33 34  2  0
 14  7  1  0
 25 21  2  0
 24 20  2  0
M  END
>  <ID>  (79) 


>  <MOLENAME>  (79) 
PIMOZIDE

>  <therap>  (79) 
antipsychotic

>  <ref>  (79) 
Science 220:1304 (1983); Am J Psychiatry 140:1235 (1983)

>  <cas#>  (79) 
2062-78-4

>  <source>  (79) 
synthetic; McN-JR-6238, R-6238

>  <status>  (79) 
USP, INN, BAN, JAN

>  <tradename>  (79) 
ORAP

>  <SMILES>  (79) 
O=c1[nH]c2ccccc2n1C1CCN(CCCC(c2ccc(F)cc2)c2ccc(F)cc2)CC1

>  <standardized_failed>  (79) 
False

$$$$

     RDKit          2D

 21 22  0  0  0  0  0  0  0  0999 V2000
    5.1125   -4.1167    0.0000 S   0  0  0  0  0  0  0  0  0  0  0  0
    5.1167   -4.9417    0.0000 C   0  0  0  0  0  0  0  0  0  0  0  0
    4.4125   -5.3583    0.0000 C   0  0  0  0  0  0  0  0  0  0  0  0
    5.8333   -5.3458    0.0000 C   0  0  0  0  0  0  0  0  0  0  0  0
    3.6958   -4.9500    0.0000 C   0  0  0  0  0  0  0  0  0  0  0  0
    5.8417   -6.1750    0.0000 C   0  0  0  0  0  0  0  0  0  0  0  0
    4.4125   -6.1833    0.0000 C   0  0  0  0  0  0  0  0  0  0  0  0
    4.3917   -3.7125    0.0000 O   0  0  0  0  0  0  0  0  0  0  0  0
    5.1042   -3.2917    0.0000 O   0  0  0  0  0  0  0  0  0  0  0  0
    5.1250   -6.5917    0.0000 C   0  0  0  0  0  0  0  0  0  0  0  0
    3.6917   -4.1250    0.0000 O   0  0  0  0  0  0  0  0  0  0  0  0
    5.8208   -3.6958    0.0000 O   0  0  0  0  0  0  0  0  0  0  0  0
    2.9833   -5.3667    0.0000 C   0  0  0  0  0  0  0  0  0  0  0  0
    6.5458   -4.9292    0.0000 O   0  0  0  0  0  0  0  0  0  0  0  0
    5.1292   -7.4167    0.0000 O   0  0  0  0  0  0  0  0  0  0  0  0
    2.9833   -6.1958    0.0000 C   0  0  0  0  0  0  0  0  0  0  0  0
    2.2667   -4.9542    0.0000 C   0  0  0  0  0  0  0  0  0  0  0  0
    7.2625   -5.3375    0.0000 C   0  0  0  0  0  0  0  0  0  0  0  0
    1.5542   -5.3667    0.0000 C   0  0  0  0  0  0  0  0  0  0  0  0
    2.2667   -6.6083    0.0000 C   0  0  0  0  0  0  0  0  0  0  0  0
    1.5542   -6.1958    0.0000 C   0  0  0  0  0  0  0  0  0  0  0  0
  2  1  1  0
  3  2  2  0
  4  2  1  0
  5  3  1  0
  6  4  2  0
  7  3  1  0
  8  1  2  0
  9  1  2  0
 10  7  2  0
 11  5  2  0
 12  1  1  0
 13  5  1  0
 14  4  1  0
 15 10  1  0
 16 13  2  0
 17 13  1  0
 18 14  1  0
 19 17  2  0
 20 16  1  0
 21 20  2  0
  6 10  1  0
 21 19  1  0
M  END
>  <ID>  (80) 


>  <MOLENAME>  (80) 
SULISOBENZONE

>  <therap>  (80) 
ultraviolet screen

>  <ref>  (80) 
J Invest Dermatol 34:51 (1960)

>  <cas#>  (80) 
4065-45-6

>  <source>  (80) 
synthetic; NSC-60584

>  <status>  (80) 
USP

>  <tradename>  (80) 
SUNGARD

>  <SMILES>  (80) 
COc1cc(O)cc(C(=O)c2ccccc2)c1S(=O)(=O)O

>  <standardized_failed>  (80) 
False

$$$$

     RDKit          2D

 19 21  0  0  0  0  0  0  0  0999 V2000
    0.7750    0.4750    0.0000 C   0  0  0  0  0  0  0  0  0  0  0  0
    1.3625    1.0625    0.0000 C   0  0  0  0  0  0  0  0  0  0  0  0
    0.7792   -0.3500    0.0000 C   0  0  0  0  0  0  0  0  0  0  0  0
    2.1875   -0.9292    0.0000 N   0  0  0  0  0  0  0  0  0  0  0  0
    1.3625   -0.9292    0.0000 C   0  0  0  0  0  0  0  0  0  0  0  0
    2.1875    1.0625    0.0000 O   0  0  0  0  0  0  0  0  0  0  0  0
    1.0417    1.8208    0.0000 C   0  0  0  0  0  0  0  0  0  0  0  0
    2.7667    0.4750    0.0000 C   0  0  0  0  0  0  0  0  0  0  0  0
    2.7667   -0.3500    0.0000 C   0  0  0  0  0  0  0  0  0  0  0  0
    0.0625    0.8833    0.0000 C   0  0  0  0  0  0  0  0  0  0  0  0
    2.5042   -1.6917    0.0000 C   0  0  0  0  0  0  0  0  0  0  0  0
    0.0667   -0.7667    0.0000 C   0  0  0  0  0  0  0  0  0  0  0  0
    0.2292    1.9333    0.0000 C   0  0  0  0  0  0  0  0  0  0  0  0
    1.5500    2.4750    0.0000 C   0  0  0  0  0  0  0  0  0  0  0  0
   -0.6500    0.4708    0.0000 C   0  0  0  0  0  0  0  0  0  0  0  0
   -0.6500   -0.3542    0.0000 C   0  0  0  0  0  0  0  0  0  0  0  0
   -0.0833    2.6958    0.0000 C   0  0  0  0  0  0  0  0  0  0  0  0
    1.2375    3.2375    0.0000 C   0  0  0  0  0  0  0  0  0  0  0  0
    0.4167    3.3458    0.0000 C   0  0  0  0  0  0  0  0  0  0  0  0
  2  1  1  0
  3  1  2  0
  4  5  1  0
  5  3  1  0
  6  2  1  0
  7  2  1  0
  8  6  1  0
  9  4  1  0
 10  1  1  0
 11  4  1  0
 12  3  1  0
 13  7  2  0
 14  7  1  0
 15 10  2  0
 16 15  1  0
 17 13  1  0
 18 14  2  0
 19 18  1  0
 12 16  2  0
  8  9  1  0
 17 19  2  0
M  END
>  <ID>  (81) 


>  <MOLENAME>  (81) 
NEFOPAM

>  <therap>  (81) 
analgesic

>  <ref>  (81) 
Drugs (1980), 19(4), 249-67; J. Int. Med. Res. (1976), 4(2), 138-43; Clin. Pharmacol. Ther. (1975), 18(5 Pt 1), 530-4

>  <cas#>  (81) 
23327-57-3, 13669-70-0 [nefopam]

>  <source>  (81) 
synthetic

>  <status>  (81) 
USAN, INN, BAN

>  <tradename>  (81) 
ACUPAN

>  <SMILES>  (81) 
CN1CCOC(c2ccccc2)c2c(cccc2)C1

>  <standardized_failed>  (81) 
False

$$$$

     RDKit          2D

 18 19  0  0  0  0  0  0  0  0999 V2000
    5.6000   -1.4083    0.0000 C   0  0  0  0  0  0  0  0  0  0  0  0
    5.5958   -0.5833    0.0000 C   0  0  0  0  0  0  0  0  0  0  0  0
    4.8792   -1.8250    0.0000 N   0  0  0  0  0  0  0  0  0  0  0  0
    6.3875   -1.6583    0.0000 N   0  0  0  0  0  0  0  0  0  0  0  0
    4.1667   -0.5875    0.0000 N   0  0  0  0  0  0  0  0  0  0  0  0
    6.3792   -0.3208    0.0000 N   0  0  0  0  0  0  0  0  0  0  0  0
    4.8792   -0.1708    0.0000 C   0  0  0  0  0  0  0  0  0  0  0  0
    4.1667   -1.4125    0.0000 C   0  0  0  0  0  0  0  0  0  0  0  0
    6.8708   -0.9875    0.0000 C   0  0  0  0  0  0  0  0  0  0  0  0
    6.6458   -2.4417    0.0000 C   0  0  0  0  0  0  0  0  0  0  0  0
    4.8750    0.6542    0.0000 O   0  0  0  0  0  0  0  0  0  0  0  0
    3.4500   -1.8250    0.0000 N   0  0  0  0  0  0  0  0  0  0  0  0
    7.4542   -2.6083    0.0000 O   0  0  0  0  0  0  0  0  0  0  0  0
    7.7125   -3.3917    0.0000 C   0  0  0  0  0  0  0  0  0  0  0  0
    8.7833   -4.3417    0.0000 O   0  0  0  0  0  0  0  0  0  0  0  0
    7.4250   -4.7917    0.0000 O   0  0  0  0  0  0  0  0  0  0  0  0
    8.5208   -3.5583    0.0000 C   0  0  0  0  0  0  0  0  0  0  0  0
    7.1667   -4.0083    0.0000 C   0  0  0  0  0  0  0  0  0  0  0  0
  2  1  2  0
  3  1  1  0
  4  1  1  0
  5  8  1  0
  6  2  1  0
  7  2  1  0
  8  3  2  0
  9  4  1  0
 10  4  1  0
 11  7  2  0
 12  8  1  0
 13 10  1  0
 14 13  1  0
 15 17  1  0
 16 18  1  0
 17 14  1  0
 18 14  1  0
  6  9  2  0
  5  7  1  0
M  END
>  <ID>  (82) 


>  <MOLENAME>  (82) 
GANCICLOVIR

>  <therap>  (82) 
antiviral

>  <ref>  (82) 
J Med Chem 26:759 (1983); PNAS 80:2767 (1983); N Engl J Med 335:721 (1996)

>  <cas#>  (82) 
82410-32-0

>  <source>  (82) 
synthetic; BW-759U, RS-21592

>  <status>  (82) 
USP, INN, BAN, JAN

>  <tradename>  (82) 
CYTOVENE

>  <SMILES>  (82) 
Nc1nc2c(ncn2COC(CO)CO)c(=O)[nH]1

>  <standardized_failed>  (82) 
False

$$$$

     RDKit          2D

 23 25  0  0  0  0  0  0  0  0999 V2000
    2.6861   -1.8125    0.0000 C   0  0  0  0  0  0  0  0  0  0  0  0
    2.6849   -2.6398    0.0000 C   0  0  0  0  0  0  0  0  0  0  0  0
    3.3997   -3.0527    0.0000 C   0  0  0  0  0  0  0  0  0  0  0  0
    3.3979   -1.3997    0.0000 C   0  0  0  0  0  0  0  0  0  0  0  0
    4.1133   -1.8088    0.0000 C   0  0  0  0  0  0  0  0  0  0  0  0
    4.1181   -2.6353    0.0000 C   0  0  0  0  0  0  0  0  0  0  0  0
    4.9056   -2.8861    0.0000 N   0  0  0  0  0  0  0  0  0  0  0  0
    5.3876   -2.2146    0.0000 C   0  0  0  0  0  0  0  0  0  0  0  0
    4.8978   -1.5489    0.0000 N   0  0  0  0  0  0  0  0  0  0  0  0
    1.9701   -3.0518    0.0000 C   0  0  0  0  0  0  0  0  0  0  0  0
    1.2560   -2.6387    0.0000 C   0  0  0  0  0  0  0  0  0  0  0  0
    1.2612   -1.8138    0.0000 C   0  0  0  0  0  0  0  0  0  0  0  0
    0.5479   -1.4008    0.0000 C   0  0  0  0  0  0  0  0  0  0  0  0
   -0.1679   -1.8128    0.0000 C   0  0  0  0  0  0  0  0  0  0  0  0
   -0.1659   -2.6421    0.0000 C   0  0  0  0  0  0  0  0  0  0  0  0
    0.5480   -3.0513    0.0000 C   0  0  0  0  0  0  0  0  0  0  0  0
   -0.8826   -1.4007    0.0000 F   0  0  0  0  0  0  0  0  0  0  0  0
    6.2125   -2.2097    0.0000 C   0  0  0  0  0  0  0  0  0  0  0  0
    6.6292   -2.9218    0.0000 C   0  0  0  0  0  0  0  0  0  0  0  0
    7.4542   -2.9169    0.0000 O   0  0  0  0  0  0  0  0  0  0  0  0
    6.2210   -3.6387    0.0000 O   0  0  0  0  0  0  0  0  0  0  0  0
    7.8709   -3.6289    0.0000 C   0  0  0  0  0  0  0  0  0  0  0  0
    1.9625   -3.8750    0.0000 O   0  0  0  0  0  0  0  0  0  0  0  0
 10 11  1  0
 11 12  2  0
  2  3  1  0
 12 13  1  0
  3  6  2  0
 13 14  2  0
  1  2  2  0
 14 15  1  0
  5  4  2  0
 15 16  2  0
 16 11  1  0
  6  7  1  0
 14 17  1  0
  7  8  2  0
  8 18  1  0
  8  9  1  0
 18 19  1  0
  9  5  1  0
 19 20  1  0
  4  1  1  0
 19 21  2  0
  2 10  1  0
 20 22  1  0
  5  6  1  0
 10 23  2  0
M  END
>  <ID>  (83) 


>  <MOLENAME>  (83) 
FLUBENDAZOLE

>  <therap>  (83) 
anthelmitic

>  <ref>  (83) 
Arzneim Forsch 28:586. 605 (1978)

>  <cas#>  (83) 
31430-15-6

>  <source>  (83) 
synthetic; R17889

>  <status>  (83) 
USAN, INN, BAN

>  <tradename>  (83) 
FLUBENOL

>  <SMILES>  (83) 
COC(=O)Cc1nc2cc(C(=O)c3ccc(F)cc3)ccc2[nH]1

>  <standardized_failed>  (83) 
False

$$$$

     RDKit          2D

 21 23  0  0  0  0  0  0  0  0999 V2000
   -1.5833   -0.0167    0.0000 C   0  0  0  0  0  0  0  0  0  0  0  0
    2.9542    0.0708    0.0000 N   0  0  0  0  0  0  0  0  0  0  0  0
    2.1667   -1.0125    0.0000 C   0  0  0  0  0  0  0  0  0  0  0  0
    2.9542   -1.2667    0.0000 C   0  0  0  0  0  0  0  0  0  0  0  0
   -0.7708   -0.1917    0.0000 N   0  0  0  0  0  0  0  0  0  0  0  0
    3.4417   -0.6000    0.0000 C   0  0  0  0  0  0  0  0  0  0  0  0
    2.1667   -0.1875    0.0000 C   0  0  0  0  0  0  0  0  0  0  0  0
   -1.9958   -0.7292    0.0000 O   0  0  0  0  0  0  0  0  0  0  0  0
    1.4542   -1.4292    0.0000 C   0  0  0  0  0  0  0  0  0  0  0  0
   -1.9125    0.7333    0.0000 O   0  0  0  0  0  0  0  0  0  0  0  0
   -0.6875   -1.0167    0.0000 C   0  0  0  0  0  0  0  0  0  0  0  0
    0.7417   -1.0167    0.0000 C   0  0  0  0  0  0  0  0  0  0  0  0
    3.2125   -2.0542    0.0000 C   0  0  0  0  0  0  0  0  0  0  0  0
    1.4542    0.2250    0.0000 C   0  0  0  0  0  0  0  0  0  0  0  0
   -1.4375   -1.3417    0.0000 C   0  0  0  0  0  0  0  0  0  0  0  0
    0.0250   -1.4292    0.0000 C   0  0  0  0  0  0  0  0  0  0  0  0
    4.2750   -3.0042    0.0000 N   0  0  0  0  0  0  0  0  0  0  0  0
    4.0167   -2.2250    0.0000 C   0  0  0  0  0  0  0  0  0  0  0  0
    0.7417   -0.1875    0.0000 C   0  0  0  0  0  0  0  0  0  0  0  0
    5.0792   -3.1792    0.0000 C   0  0  0  0  0  0  0  0  0  0  0  0
    3.7167   -3.6167    0.0000 C   0  0  0  0  0  0  0  0  0  0  0  0
  2  7  1  0
  3  9  2  0
  4  3  1  0
  5  1  1  0
  6  4  2  0
  7 14  2  0
  8  1  1  0
  9 12  1  0
 10  1  2  0
 11  5  1  0
 12 16  1  0
 13  4  1  0
 14 19  1  0
 15  8  1  0
 11 16  1  1
 17 18  1  0
 18 13  1  0
 19 12  2  0
 20 17  1  0
 21 17  1  0
 11 15  1  0
  3  7  1  0
  2  6  1  0
M  END
>  <ID>  (84) 


>  <MOLENAME>  (84) 
ZOLMITRIPTAN

>  <therap>  (84) 
antimigraine, 5HT[1B/1D] agonist

>  <ref>  (84) 
Br J Clin Pharmacol 41:141 (1996); Expert Opin Pharmacother 6:1019 (2005)

>  <cas#>  (84) 
139264-17-8

>  <source>  (84) 
synthetic

>  <status>  (84) 
USAN, INN, BAN

>  <tradename>  (84) 
ZOMIG

>  <SMILES>  (84) 
CN(C)CCc1c[nH]c2ccc(C[C@H]3COC(=O)N3)cc12

>  <standardized_failed>  (84) 
False

$$$$

     RDKit          2D

 18 19  0  0  0  0  0  0  0  0999 V2000
    2.0167   -1.6542    0.0000 S   0  0  0  0  0  0  0  0  0  0  0  0
    2.8375   -1.6750    0.0000 N   0  0  0  0  0  0  0  0  0  0  0  0
    3.6625   -1.6792    0.0000 C   0  0  0  0  0  0  0  0  0  0  0  0
    4.0750   -2.4042    0.0000 N   0  0  0  0  0  0  0  0  0  0  0  0
    4.8917   -2.4125    0.0000 N   0  0  0  0  0  0  0  0  0  0  0  0
    1.1917   -1.6417    0.0000 C   0  0  0  0  0  0  0  0  0  0  0  0
    2.0417   -0.8292    0.0000 O   0  0  0  0  0  0  0  0  0  0  0  0
    2.0167   -2.6542    0.0000 O   0  0  0  0  0  0  0  0  0  0  0  0
    5.3167   -1.7042    0.0000 C   0  0  0  0  0  0  0  0  0  0  0  0
    0.7750   -2.3375    0.0000 C   0  0  0  0  0  0  0  0  0  0  0  0
    0.7917   -0.9167    0.0000 C   0  0  0  0  0  0  0  0  0  0  0  0
    4.0792   -0.9875    0.0000 C   0  0  0  0  0  0  0  0  0  0  0  0
    6.1417   -1.7042    0.0000 Cl  0  0  0  0  0  0  0  0  0  0  0  0
   -0.4458   -1.6042    0.0000 C   0  0  0  0  0  0  0  0  0  0  0  0
    4.9167   -0.9792    0.0000 C   0  0  0  0  0  0  0  0  0  0  0  0
   -1.2708   -1.5875    0.0000 N   0  0  0  0  0  0  0  0  0  0  0  0
   -0.0125   -0.9042    0.0000 C   0  0  0  0  0  0  0  0  0  0  0  0
   -0.0583   -2.3250    0.0000 C   0  0  0  0  0  0  0  0  0  0  0  0
  2  1  1  0
  3  2  1  0
  4  3  2  0
  5  4  1  0
  6  1  1  0
  7  1  2  0
  8  1  2  0
  9 15  1  0
 10  6  2  0
 11  6  1  0
 12  3  1  0
 13  9  1  0
 14 17  1  0
 15 12  2  0
 16 14  1  0
 17 11  2  0
 18 10  1  0
 18 14  2  0
  9  5  2  0
M  END
>  <ID>  (85) 


>  <MOLENAME>  (85) 
SULFACHLORPYRIDAZINE

>  <therap>  (85) 
antibacterial

>  <ref>  (85) 
J Vet Diag Invest 5:541 (1993); Vet Rec 137:483 (1995)

>  <cas#>  (85) 
80-32-0

>  <source>  (85) 
synthetic

>  <status>  (85) 
USP, INN, BAN

>  <tradename>  (85) 
VETISULID

>  <SMILES>  (85) 
Nc1ccc(S(=O)(=O)Nc2nnc(Cl)cc2)cc1

>  <standardized_failed>  (85) 
False

$$$$

     RDKit          2D

 61 63  0  0  0  0  0  0  0  0999 V2000
    9.7917   -5.5917    0.0000 C   0  0  0  0  0  0  0  0  0  0  0  0
    9.9417   -6.9292    0.0000 C   0  0  0  0  0  0  0  0  0  0  0  0
    8.0917   -6.2792    0.0000 C   0  0  0  0  0  0  0  0  0  0  0  0
    9.4792   -6.3042    0.0000 C   0  0  0  0  0  0  0  0  0  0  0  0
    8.0917   -4.8417    0.0000 C   0  0  0  0  0  0  0  0  0  0  0  0
    8.5042   -5.5667    0.0000 C   0  0  0  0  0  0  0  0  0  0  0  0
    9.5167   -4.8417    0.0000 C   0  0  0  0  0  0  0  0  0  0  0  0
    8.8042   -6.6917    0.0000 C   0  0  0  0  0  0  0  0  0  0  0  0
    8.8042   -4.4292    0.0000 C   0  0  0  0  0  0  0  0  0  0  0  0
    7.2667   -4.8417    0.0000 C   0  0  0  0  0  0  0  0  0  0  0  0
    7.2667   -6.2792    0.0000 C   0  0  0  0  0  0  0  0  0  0  0  0
    6.8542   -5.5667    0.0000 C   0  0  0  0  0  0  0  0  0  0  0  0
    5.6167   -4.8542    0.0000 C   0  0  0  0  0  0  0  0  0  0  0  0
   10.5667   -5.4917    0.0000 C   0  0  0  0  0  0  0  0  0  0  0  0
    4.7917   -4.8542    0.0000 C   0  0  0  0  0  0  0  0  0  0  0  0
   10.7167   -6.8417    0.0000 C   0  0  0  0  0  0  0  0  0  0  0  0
    8.2167   -7.2667    0.0000 O   0  0  0  0  0  0  0  0  0  0  0  0
    4.3917   -4.1417    0.0000 C   0  0  0  0  0  0  0  0  0  0  0  0
    3.1542   -3.4292    0.0000 C   0  0  0  0  0  0  0  0  0  0  0  0
    7.3917   -7.3667    0.0000 C   0  0  0  0  0  0  0  0  0  0  0  0
    6.0292   -5.5667    0.0000 O   0  0  0  0  0  0  0  0  0  0  0  0
   10.0167   -7.7042    0.0000 C   0  0  0  0  0  0  0  0  0  0  0  0
   11.0292   -6.1292    0.0000 C   0  0  0  0  0  0  0  0  0  0  0  0
    9.2667   -7.3042    0.0000 O   0  0  0  0  0  0  0  0  0  0  0  0
   10.7917   -7.6167    0.0000 O   0  0  0  0  0  0  0  0  0  0  0  0
    3.5667   -4.1417    0.0000 N   0  0  0  0  0  0  0  0  0  0  0  0
    9.2542   -8.0792    0.0000 C   0  0  0  0  0  0  0  0  0  0  0  0
    9.9292   -4.1292    0.0000 O   0  0  0  0  0  0  0  0  0  0  0  0
    2.3292   -3.4167    0.0000 O   0  0  0  0  0  0  0  0  0  0  0  0
    6.0292   -4.1292    0.0000 O   0  0  0  0  0  0  0  0  0  0  0  0
    3.5667   -2.7042    0.0000 O   0  0  0  0  0  0  0  0  0  0  0  0
    6.9542   -6.7792    0.0000 O   0  0  0  0  0  0  0  0  0  0  0  0
    7.6792   -5.5542    0.0000 O   0  0  0  0  0  0  0  0  0  0  0  0
    6.9792   -8.0917    0.0000 C   0  0  0  0  0  0  0  0  0  0  0  0
    4.7917   -3.4167    0.0000 C   0  0  0  0  0  0  0  0  0  0  0  0
    9.9167   -8.4792    0.0000 O   0  0  0  0  0  0  0  0  0  0  0  0
    1.9250   -2.7000    0.0000 C   0  0  0  0  0  0  0  0  0  0  0  0
    8.8042   -3.6042    0.0000 O   0  0  0  0  0  0  0  0  0  0  0  0
   10.1917   -4.8667    0.0000 C   0  0  0  0  0  0  0  0  0  0  0  0
    4.3792   -5.5667    0.0000 O   0  0  0  0  0  0  0  0  0  0  0  0
   11.1167   -4.9417    0.0000 O   0  0  0  0  0  0  0  0  0  0  0  0
    9.0167   -5.0542    0.0000 C   0  0  0  0  0  0  0  0  0  0  0  0
    8.9792   -6.0292    0.0000 C   0  0  0  0  0  0  0  0  0  0  0  0
    6.8542   -4.1292    0.0000 C   0  0  0  0  0  0  0  0  0  0  0  0
    1.9667   -6.6500    0.0000 O   0  0  0  0  0  0  0  0  0  0  0  0
    3.1792   -7.3667    0.0000 O   0  0  0  0  0  0  0  0  0  0  0  0
    3.2792   -6.1167    0.0000 O   0  0  0  0  0  0  0  0  0  0  0  0
    8.5792   -8.4667    0.0000 C   0  0  0  0  0  0  0  0  0  0  0  0
    6.1542   -8.0917    0.0000 C   0  0  0  0  0  0  0  0  0  0  0  0
    7.4042   -8.7917    0.0000 C   0  0  0  0  0  0  0  0  0  0  0  0
    1.1000   -2.6917    0.0000 C   0  0  0  0  0  0  0  0  0  0  0  0
    2.3458   -1.9917    0.0000 C   0  0  0  0  0  0  0  0  0  0  0  0
    1.5042   -1.9292    0.0000 C   0  0  0  0  0  0  0  0  0  0  0  0
    4.3792   -2.7167    0.0000 C   0  0  0  0  0  0  0  0  0  0  0  0
    5.6167   -3.4167    0.0000 C   0  0  0  0  0  0  0  0  0  0  0  0
    4.7792   -1.9917    0.0000 C   0  0  0  0  0  0  0  0  0  0  0  0
    6.0292   -2.7042    0.0000 C   0  0  0  0  0  0  0  0  0  0  0  0
    5.7542   -8.8042    0.0000 C   0  0  0  0  0  0  0  0  0  0  0  0
    6.9917   -9.5042    0.0000 C   0  0  0  0  0  0  0  0  0  0  0  0
    6.1667   -9.5167    0.0000 C   0  0  0  0  0  0  0  0  0  0  0  0
    5.6167   -1.9917    0.0000 C   0  0  0  0  0  0  0  0  0  0  0  0
  2  4  1  0
  3  8  1  0
  4  1  1  0
  5  9  1  0
  6  3  1  0
  7  1  1  0
  8  4  1  0
  9  7  1  0
 10  5  2  0
 11  3  1  0
 12 11  1  0
 13 21  1  0
 14  1  1  0
 15 13  1  0
 16  2  1  0
  8 17  1  6
 18 15  1  0
 19 26  1  0
 20 17  1  0
 12 21  1  6
  2 22  1  0
 23 14  1  0
  2 24  1  6
 16 25  1  0
 18 26  1  1
 27 24  1  0
 28  7  2  0
 29 19  1  0
 30 13  2  0
 31 19  2  0
 32 20  2  0
  3 33  1  1
 34 20  1  0
 18 35  1  0
 36 27  2  0
 37 29  1  0
  9 38  1  1
  1 39  1  1
 15 40  1  6
 14 41  1  1
 42  6  1  0
 43  6  1  0
 44 10  1  0
 48 27  1  0
 49 34  2  0
 50 34  1  0
 51 37  1  0
 52 37  1  0
 53 37  1  0
 54 35  2  0
 55 35  1  0
 56 54  1  0
 57 55  2  0
 58 49  1  0
 59 50  2  0
 60 59  1  0
 61 56  2  0
 16 23  1  1
 22 25  1  0
  5  6  1  0
 10 12  1  0
 58 60  2  0
 57 61  1  0
M  END
>  <ID>  (86) 


>  <MOLENAME>  (86) 
DOCETAXEL

>  <therap>  (86) 
antineoplastic

>  <ref>  (86) 
Acc. Chem. Res. (1993), 26(4), 160-7; Cancer Res. (1991), 51(18), 4845-52; J. Med. Chem. (1991), 34(3), 992-8

>  <cas#>  (86) 
148408-66-6

>  <source>  (86) 
synthetic; RP-56976

>  <status>  (86) 
USAN, INN, BAN

>  <tradename>  (86) 
TAXOTERE

>  <SMILES>  (86) 
CC(=O)O[C@@]12CO[C@@H]1C[C@H](O)[C@@]1(C)C(=O)[C@H](O)C3=C(C)[C@@H](OC(=O)[C@H](O)[C@@H](NC(=O)OC(C)(C)C)c4ccccc4)C[C@@](O)([C@@H](OC(=O)c4ccccc4)C12)C3(C)C

>  <standardized_failed>  (86) 
False

$$$$

     RDKit          2D

 21 22  0  0  0  0  0  0  0  0999 V2000
    1.3500   -1.4292    0.0000 S   0  0  0  0  0  0  0  0  0  0  0  0
    2.2750   -0.9750    0.0000 N   0  0  0  0  0  0  0  0  0  0  0  0
    2.9875    0.2583    0.0000 N   0  0  0  0  0  0  0  0  0  0  0  0
    2.2750   -0.1500    0.0000 C   0  0  0  0  0  0  0  0  0  0  0  0
    2.2750    1.5000    0.0000 N   0  0  0  0  0  0  0  0  0  0  0  0
    2.9875    1.0833    0.0000 C   0  0  0  0  0  0  0  0  0  0  0  0
    1.5667    1.0833    0.0000 C   0  0  0  0  0  0  0  0  0  0  0  0
    1.5667    0.2583    0.0000 C   0  0  0  0  0  0  0  0  0  0  0  0
    0.0542   -1.4417    0.0000 C   0  0  0  0  0  0  0  0  0  0  0  0
    1.5625   -2.2167    0.0000 O   0  0  0  0  0  0  0  0  0  0  0  0
    1.1917   -0.5917    0.0000 O   0  0  0  0  0  0  0  0  0  0  0  0
   -0.3750   -2.1375    0.0000 C   0  0  0  0  0  0  0  0  0  0  0  0
   -0.3208   -0.7167    0.0000 C   0  0  0  0  0  0  0  0  0  0  0  0
    3.7042    1.4958    0.0000 O   0  0  0  0  0  0  0  0  0  0  0  0
   -1.6833   -1.4292    0.0000 C   0  0  0  0  0  0  0  0  0  0  0  0
    0.8500    1.4958    0.0000 O   0  0  0  0  0  0  0  0  0  0  0  0
   -2.7458   -1.4292    0.0000 N   0  0  0  0  0  0  0  0  0  0  0  0
   -1.2583   -2.1292    0.0000 C   0  0  0  0  0  0  0  0  0  0  0  0
   -1.3375   -0.7167    0.0000 C   0  0  0  0  0  0  0  0  0  0  0  0
    4.4167    1.0750    0.0000 C   0  0  0  0  0  0  0  0  0  0  0  0
    0.8417    2.3208    0.0000 C   0  0  0  0  0  0  0  0  0  0  0  0
  2  1  1  0
  3  4  2  0
  4  2  1  0
  5  7  1  0
  6  3  1  0
  7  8  2  0
  8  4  1  0
  9  1  1  0
 10  1  2  0
 11  1  2  0
 12  9  2  0
 13  9  1  0
 14  6  1  0
 15 19  1  0
 16  7  1  0
 17 15  1  0
 18 12  1  0
 19 13  2  0
 20 14  1  0
 21 16  1  0
 18 15  2  0
  6  5  2  0
M  END
>  <ID>  (87) 


>  <MOLENAME>  (87) 
SULFADIMETHOXINE

>  <therap>  (87) 
antibacterial

>  <ref>  (87) 
Am J Dis Child 104:669 (1962); Arzneim Forsch 15:441 (1965); Calif Med 107:344 (1967); Chemotherapy 14:37,195 (1969)

>  <cas#>  (87) 
122-11-2

>  <source>  (87) 
synthetic

>  <status>  (87) 
USP, INN, BAN, JAN

>  <tradename>  (87) 
MADRIBON

>  <SMILES>  (87) 
COc1cc(NS(=O)(=O)c2ccc(N)cc2)nc(OC)n1

>  <standardized_failed>  (87) 
False

$$$$

     RDKit          2D

 19 20  0  0  0  0  0  0  0  0999 V2000
    6.0375   -2.7125    0.0000 S   0  0  0  0  0  0  0  0  0  0  0  0
    6.0292   -3.5417    0.0000 N   0  0  0  0  0  0  0  0  0  0  0  0
    6.7542   -3.9625    0.0000 C   0  0  0  0  0  0  0  0  0  0  0  0
    7.4667   -3.5500    0.0000 N   0  0  0  0  0  0  0  0  0  0  0  0
    6.0375   -1.8875    0.0000 C   0  0  0  0  0  0  0  0  0  0  0  0
    8.1792   -4.7917    0.0000 N   0  0  0  0  0  0  0  0  0  0  0  0
    6.7542   -4.7917    0.0000 C   0  0  0  0  0  0  0  0  0  0  0  0
    5.2667   -2.7167    0.0000 O   0  0  0  0  0  0  0  0  0  0  0  0
    6.8625   -2.7125    0.0000 O   0  0  0  0  0  0  0  0  0  0  0  0
    7.4667   -5.2042    0.0000 C   0  0  0  0  0  0  0  0  0  0  0  0
    8.1792   -3.9625    0.0000 C   0  0  0  0  0  0  0  0  0  0  0  0
    6.7542   -1.4750    0.0000 C   0  0  0  0  0  0  0  0  0  0  0  0
    5.3250   -1.4750    0.0000 C   0  0  0  0  0  0  0  0  0  0  0  0
    6.0375   -0.2292    0.0000 C   0  0  0  0  0  0  0  0  0  0  0  0
    6.0292    0.5958    0.0000 N   0  0  0  0  0  0  0  0  0  0  0  0
    5.3250   -0.6417    0.0000 C   0  0  0  0  0  0  0  0  0  0  0  0
    6.7542   -0.6417    0.0000 C   0  0  0  0  0  0  0  0  0  0  0  0
    7.4667   -6.0292    0.0000 O   0  0  0  0  0  0  0  0  0  0  0  0
    6.7542   -6.4417    0.0000 C   0  0  0  0  0  0  0  0  0  0  0  0
  2  1  1  0
  3  2  1  0
  4  3  2  0
  5  1  1  0
  6 10  1  0
  7  3  1  0
  8  1  2  0
  9  1  2  0
 10  7  2  0
 11  4  1  0
 12  5  2  0
 13  5  1  0
 14 16  1  0
 15 14  1  0
 16 13  2  0
 17 12  1  0
 18 10  1  0
 19 18  1  0
 17 14  2  0
  6 11  2  0
M  END
>  <ID>  (88) 


>  <MOLENAME>  (88) 
SULFAMONOMETHOXINE

>  <therap>  (88) 
antibacterial

>  <ref>  (88) 
Arzneim Forsch 20:1206 (1970); Jpn J Exp Med 41:459 (1971)

>  <cas#>  (88) 
1220-83-3

>  <source>  (88) 
synthetic; DJ-1550

>  <status>  (88) 
USAN, INN, BAN, JAN

>  <tradename>  (88) 
PROSULFA

>  <SMILES>  (88) 
COc1cc(NS(=O)(=O)c2ccc(N)cc2)ncn1

>  <standardized_failed>  (88) 
False

$$$$

     RDKit          2D

 10  9  0  0  0  0  0  0  0  0999 V2000
    7.9542   -6.0167    0.0000 C   0  0  0  0  0  0  0  0  0  0  0  0
    8.5417   -5.6750    0.0000 C   0  0  0  0  0  0  0  0  0  0  0  0
    7.3542   -5.6750    0.0000 C   0  0  0  0  0  0  0  0  0  0  0  0
    9.1417   -6.0167    0.0000 C   0  0  0  0  0  0  0  0  0  0  0  0
    6.7542   -6.0167    0.0000 O   0  0  0  0  0  0  0  0  0  0  0  0
    9.1417   -6.7125    0.0000 O   0  0  0  0  0  0  0  0  0  0  0  0
    8.5417   -4.9875    0.0000 O   0  0  0  0  0  0  0  0  0  0  0  0
    7.9542   -6.7125    0.0000 O   0  0  0  0  0  0  0  0  0  0  0  0
    9.7417   -5.6750    0.0000 O   0  0  0  0  0  0  0  0  0  0  0  0
    7.3542   -4.9875    0.0000 O   0  0  0  0  0  0  0  0  0  0  0  0
  2  1  1  0
  3  1  1  0
  4  2  1  0
  5  3  2  0
  6  4  2  0
  2  7  1  1
  1  8  1  1
  9  4  1  0
 10  3  1  0
M  END
>  <ID>  (89) 


>  <MOLENAME>  (89) 
TARTARIC ACID (L)

>  <therap>  (89) 
pharmaceutical aid

>  <ref>  (89) 
nan

>  <cas#>  (89) 
87-69-4

>  <source>  (89) 
common plant constituent

>  <status>  (89) 
NF, JAN

>  <tradename>  (89) 
nan

>  <SMILES>  (89) 
O=C(O)[C@H](O)[C@@H](O)C(=O)O

>  <standardized_failed>  (89) 
False

$$$$

     RDKit          2D

 62 63  0  0  0  0  0  0  0  0999 V2000
   10.4083   -4.2625    0.0000 C   0  0  0  0  0  0  0  0  0  0  0  0
    1.3417   -4.2625    0.0000 C   0  0  0  0  0  0  0  0  0  0  0  0
   10.0708   -3.4167    0.0000 S   0  0  0  0  0  0  0  0  0  0  0  0
    1.6792   -3.4167    0.0000 S   0  0  0  0  0  0  0  0  0  0  0  0
   10.0000   -4.9833    0.0000 C   0  0  0  0  0  0  0  0  0  0  0  0
    1.7542   -4.9875    0.0000 C   0  0  0  0  0  0  0  0  0  0  0  0
   -1.9708   -5.6958    0.0000 S   0  0  0  0  0  0  0  0  0  0  0  0
   13.7250   -5.6958    0.0000 S   0  0  0  0  0  0  0  0  0  0  0  0
    1.3375   -5.7000    0.0000 C   0  0  0  0  0  0  0  0  0  0  0  0
   10.4125   -5.6958    0.0000 C   0  0  0  0  0  0  0  0  0  0  0  0
    0.5125   -5.7000    0.0000 C   0  0  0  0  0  0  0  0  0  0  0  0
   11.2375   -5.6958    0.0000 C   0  0  0  0  0  0  0  0  0  0  0  0
    2.5792   -4.9875    0.0000 N   0  0  0  0  0  0  0  0  0  0  0  0
    9.1708   -4.9875    0.0000 N   0  0  0  0  0  0  0  0  0  0  0  0
   -1.1458   -5.6958    0.0000 C   0  0  0  0  0  0  0  0  0  0  0  0
   12.9000   -5.6958    0.0000 C   0  0  0  0  0  0  0  0  0  0  0  0
   11.6542   -4.9750    0.0000 C   0  0  0  0  0  0  0  0  0  0  0  0
    0.1000   -4.9792    0.0000 C   0  0  0  0  0  0  0  0  0  0  0  0
    0.1000   -6.4167    0.0000 C   0  0  0  0  0  0  0  0  0  0  0  0
   11.6500   -6.4125    0.0000 C   0  0  0  0  0  0  0  0  0  0  0  0
   11.2375   -4.2583    0.0000 C   0  0  0  0  0  0  0  0  0  0  0  0
    0.5125   -4.2583    0.0000 C   0  0  0  0  0  0  0  0  0  0  0  0
    8.7542   -5.7000    0.0000 N   0  0  0  0  0  0  0  0  0  0  0  0
    2.9958   -5.7000    0.0000 N   0  0  0  0  0  0  0  0  0  0  0  0
   12.4792   -6.4167    0.0000 C   0  0  0  0  0  0  0  0  0  0  0  0
   -0.7292   -6.4167    0.0000 C   0  0  0  0  0  0  0  0  0  0  0  0
   12.4833   -4.9750    0.0000 C   0  0  0  0  0  0  0  0  0  0  0  0
   -0.7333   -4.9792    0.0000 C   0  0  0  0  0  0  0  0  0  0  0  0
    5.4667   -5.6917    0.0000 C   0  0  0  0  0  0  0  0  0  0  0  0
    6.2875   -5.6958    0.0000 C   0  0  0  0  0  0  0  0  0  0  0  0
    9.6500   -2.7000    0.0000 O   0  0  0  0  0  0  0  0  0  0  0  0
    2.1042   -2.7042    0.0000 O   0  0  0  0  0  0  0  0  0  0  0  0
   14.8125   -5.7375    0.0000 O   0  0  0  0  0  0  0  0  0  0  0  0
   -2.8125   -5.6833    0.0000 O   0  0  0  0  0  0  0  0  0  0  0  0
    9.3208   -3.8958    0.0000 O   0  0  0  0  0  0  0  0  0  0  0  0
    0.8750   -2.9042    0.0000 O   0  0  0  0  0  0  0  0  0  0  0  0
    2.4292   -3.9000    0.0000 O   0  0  0  0  0  0  0  0  0  0  0  0
   10.8792   -2.9000    0.0000 O   0  0  0  0  0  0  0  0  0  0  0  0
    6.6958   -6.4083    0.0000 C   0  0  0  0  0  0  0  0  0  0  0  0
    5.0542   -6.4083    0.0000 C   0  0  0  0  0  0  0  0  0  0  0  0
   -1.9083   -4.8083    0.0000 O   0  0  0  0  0  0  0  0  0  0  0  0
   -2.0333   -6.7125    0.0000 O   0  0  0  0  0  0  0  0  0  0  0  0
   13.7833   -6.7083    0.0000 O   0  0  0  0  0  0  0  0  0  0  0  0
   13.6583   -4.8042    0.0000 O   0  0  0  0  0  0  0  0  0  0  0  0
    7.9292   -5.6958    0.0000 C   0  0  0  0  0  0  0  0  0  0  0  0
    3.8208   -5.7000    0.0000 C   0  0  0  0  0  0  0  0  0  0  0  0
    7.5208   -6.4042    0.0000 C   0  0  0  0  0  0  0  0  0  0  0  0
    4.2292   -6.4083    0.0000 C   0  0  0  0  0  0  0  0  0  0  0  0
    5.0542   -4.9833    0.0000 C   0  0  0  0  0  0  0  0  0  0  0  0
    6.6958   -4.9833    0.0000 C   0  0  0  0  0  0  0  0  0  0  0  0
    4.2292   -4.9875    0.0000 C   0  0  0  0  0  0  0  0  0  0  0  0
    7.5250   -4.9833    0.0000 C   0  0  0  0  0  0  0  0  0  0  0  0
   11.2375   -7.1250    0.0000 N   0  0  0  0  0  0  0  0  0  0  0  0
    0.5125   -7.1292    0.0000 N   0  0  0  0  0  0  0  0  0  0  0  0
    1.7500   -6.4125    0.0000 O   0  0  0  0  0  0  0  0  0  0  0  0
   10.0000   -6.4125    0.0000 O   0  0  0  0  0  0  0  0  0  0  0  0
   -3.9708   -6.6167    0.0000 Na  0  0  0  0  0 15  0  0  0  0  0  0
    3.1250   -2.6292    0.0000 Na  0  0  0  0  0 15  0  0  0  0  0  0
   15.4542   -6.4625    0.0000 Na  0  0  0  0  0 15  0  0  0  0  0  0
    8.6292   -2.6292    0.0000 Na  0  0  0  0  0 15  0  0  0  0  0  0
    3.8208   -7.1208    0.0000 C   0  0  0  0  0  0  0  0  0  0  0  0
    7.9333   -7.1208    0.0000 C   0  0  0  0  0  0  0  0  0  0  0  0
  2  6  2  0
  3  1  1  0
  4  2  1  0
  5  1  2  0
  6 13  1  0
  7 15  1  0
  8 16  1  0
  9  6  1  0
 10  5  1  0
 11  9  2  0
 12 17  1  0
 13 24  2  0
 14  5  1  0
 15 26  1  0
 16 27  2  0
 17 21  2  0
 18 11  1  0
 19 11  1  0
 20 12  1  0
 21  1  1  0
 22  2  1  0
 23 14  2  0
 24 46  1  0
 25 16  1  0
 26 19  2  0
 27 17  1  0
 28 18  1  0
 29 30  1  0
 30 39  2  0
 31  3  1  0
 32  4  1  0
 33  8  1  0
 34  7  1  0
 35  3  2  0
 36  4  2  0
 37  4  2  0
 38  3  2  0
 39 47  1  0
 40 29  2  0
 41  7  2  0
 42  7  2  0
 43  8  2  0
 44  8  2  0
 45 23  1  0
 46 51  1  0
 47 45  2  0
 48 40  1  0
 49 29  1  0
 50 52  2  0
 51 49  2  0
 52 45  1  0
 53 20  1  0
 54 19  1  0
 55  9  1  0
 56 10  1  0
 61 48  1  0
 62 47  1  0
 10 12  2  0
 20 25  2  0
 50 30  1  0
 48 46  2  0
 18 22  2  0
 15 28  2  0
M  CHG  8  31  -1  32  -1  33  -1  34  -1  57   1  58   1  59   1  60   1
M  END
>  <ID>  (90) 


>  <MOLENAME>  (90) 
TRYPAN BLUE

>  <therap>  (90) 
biological stain

>  <ref>  (90) 
Ind Eng Chem 17:1289 (1925); Proc Soc Exp Biol Med 31:825 (1934); Clin Pharmaco Ther 5:480 (1964)

>  <cas#>  (90) 
72-57-1

>  <source>  (90) 
synthetic; CI-23850

>  <status>  (90) 
experimental

>  <tradename>  (90) 
nan

>  <SMILES>  (90) 
Cc1c(/N=N/c2c(S(=O)(=O)O)cc3cc(S(=O)(=O)O)cc(N)c3c2O)ccc(-c2cc(C)c(/N=N/c3c(S(=O)(=O)O)cc4cc(S(=O)(=O)O)cc(N)c4c3O)cc2)c1

>  <standardized_failed>  (90) 
False

$$$$

     RDKit          2D

 23 24  0  0  0  0  0  0  0  0999 V2000
   -2.7958   -2.0625    0.0000 S   0  0  0  0  0  0  0  0  0  0  0  0
   -2.1458   -0.1792    0.0000 C   0  0  0  0  0  0  0  0  0  0  0  0
   -1.4958    0.1958    0.0000 C   0  0  0  0  0  0  0  0  0  0  0  0
   -2.7958   -1.3042    0.0000 C   0  0  0  0  0  0  0  0  0  0  0  0
   -2.1458   -0.9292    0.0000 C   0  0  0  0  0  0  0  0  0  0  0  0
    0.7042   -2.1167    0.0000 N   0  0  0  0  0  0  0  0  0  0  0  0
   -0.8458   -0.1792    0.0000 N   0  0  0  0  0  0  0  0  0  0  0  0
   -3.5458   -2.0542    0.0000 O   0  0  0  0  0  0  0  0  0  0  0  0
   -2.0458   -2.0542    0.0000 O   0  0  0  0  0  0  0  0  0  0  0  0
   -2.7958    0.1958    0.0000 C   0  0  0  0  0  0  0  0  0  0  0  0
   -2.7958   -2.8042    0.0000 N   0  0  0  0  0  0  0  0  0  0  0  0
   -1.4958    0.9458    0.0000 O   0  0  0  0  0  0  0  0  0  0  0  0
   -3.4458   -0.9292    0.0000 C   0  0  0  0  0  0  0  0  0  0  0  0
   -3.4458   -0.1792    0.0000 C   0  0  0  0  0  0  0  0  0  0  0  0
   -0.0375   -2.0417    0.0000 C   0  0  0  0  0  0  0  0  0  0  0  0
   -0.1958   -1.3042    0.0000 C   0  0  0  0  0  0  0  0  0  0  0  0
   -0.8458   -0.9292    0.0000 C   0  0  0  0  0  0  0  0  0  0  0  0
    1.0125   -1.4292    0.0000 C   0  0  0  0  0  0  0  0  0  0  0  0
    0.4542   -0.9292    0.0000 C   0  0  0  0  0  0  0  0  0  0  0  0
   -2.7958    0.9458    0.0000 O   0  0  0  0  0  0  0  0  0  0  0  0
    1.0875   -2.7667    0.0000 C   0  0  0  0  0  0  0  0  0  0  0  0
   -2.1500    1.3208    0.0000 C   0  0  0  0  0  0  0  0  0  0  0  0
    1.8375   -2.7667    0.0000 C   0  0  0  0  0  0  0  0  0  0  0  0
  2  5  1  0
  3  2  1  0
  4  1  1  0
  5  4  2  0
  6 15  1  0
  7  3  1  0
  8  1  2  0
  9  1  2  0
 10 14  1  0
 11  1  1  0
 12  3  2  0
 13  4  1  0
 14 13  2  0
 15 16  1  0
 16 17  1  0
 17  7  1  0
 18 19  1  0
 19 16  1  0
 20 10  1  0
 21  6  1  0
 22 20  1  0
 23 21  1  0
  2 10  2  0
  6 18  1  0
M  END
>  <ID>  (91) 


>  <MOLENAME>  (91) 
SULPIRIDE

>  <therap>  (91) 
dopamine receptor antagonist, antipsychotic

>  <ref>  (91) 
Curr Ther Res 53:484 (1993); CNS Drugs 2:313 (1994)

>  <cas#>  (91) 
15676-16-1

>  <source>  (91) 
synthetic

>  <status>  (91) 
USAN, INN, BAN, JAN

>  <tradename>  (91) 
DOGMATYL

>  <SMILES>  (91) 
CCN1CCC(CNC(=O)c2c(OC)ccc(S(N)(=O)=O)c2)C1

>  <standardized_failed>  (91) 
False

$$$$

     RDKit          2D

 21 23  0  0  0  0  0  0  0  0999 V2000
    4.9875   -0.9792    0.0000 C   0  0  0  0  0  0  0  0  0  0  0  0
    5.4750   -1.6542    0.0000 N   0  0  0  0  0  0  0  0  0  0  0  0
    4.9875   -2.3167    0.0000 N   0  0  0  0  0  0  0  0  0  0  0  0
    4.2042   -1.2375    0.0000 C   0  0  0  0  0  0  0  0  0  0  0  0
    4.2042   -2.0625    0.0000 C   0  0  0  0  0  0  0  0  0  0  0  0
    5.2417   -0.1917    0.0000 C   0  0  0  0  0  0  0  0  0  0  0  0
    5.2417   -3.1042    0.0000 C   0  0  0  0  0  0  0  0  0  0  0  0
    6.0500   -3.2792    0.0000 C   0  0  0  0  0  0  0  0  0  0  0  0
    6.3000   -4.0625    0.0000 C   0  0  0  0  0  0  0  0  0  0  0  0
    7.1042   -4.2375    0.0000 C   0  0  0  0  0  0  0  0  0  0  0  0
    4.6875    0.4208    0.0000 O   0  0  0  0  0  0  0  0  0  0  0  0
    6.6000   -2.6667    0.0000 C   0  0  0  0  0  0  0  0  0  0  0  0
    7.6625   -3.6292    0.0000 C   0  0  0  0  0  0  0  0  0  0  0  0
    5.7417   -4.6708    0.0000 Cl  0  0  0  0  0  0  0  0  0  0  0  0
    6.0500   -0.0167    0.0000 O   0  0  0  0  0  0  0  0  0  0  0  0
    3.4917   -0.8250    0.0000 C   0  0  0  0  0  0  0  0  0  0  0  0
    7.4042   -2.8417    0.0000 C   0  0  0  0  0  0  0  0  0  0  0  0
    8.4667   -3.8125    0.0000 Cl  0  0  0  0  0  0  0  0  0  0  0  0
    3.4917   -2.4750    0.0000 C   0  0  0  0  0  0  0  0  0  0  0  0
    2.7750   -1.2375    0.0000 C   0  0  0  0  0  0  0  0  0  0  0  0
    2.7750   -2.0625    0.0000 C   0  0  0  0  0  0  0  0  0  0  0  0
  2  1  2  0
  3  2  1  0
  4  1  1  0
  5  4  2  0
  6  1  1  0
  7  3  1  0
  8  7  1  0
  9  8  2  0
 10  9  1  0
 11  6  2  0
 12  8  1  0
 13 17  1  0
 14  9  1  0
 15  6  1  0
 16  4  1  0
 17 12  2  0
 18 13  1  0
 19  5  1  0
 20 16  2  0
 21 20  1  0
  5  3  1  0
 21 19  2  0
 13 10  2  0
M  END
>  <ID>  (92) 


>  <MOLENAME>  (92) 
LONIDAMINE

>  <therap>  (92) 
contraceptive, spermicidal

>  <ref>  (92) 
Drugs Today (2003), 39(3), 157-74; Prog. Med. Chem. (1985), 21,111-135; Chemotherapy (1981), 27 Suppl 2, 107-20

>  <cas#>  (92) 
50264-69-2

>  <source>  (92) 
synthetic; AF-1890

>  <status>  (92) 
INN, BAN

>  <tradename>  (92) 
DORIDAMINA

>  <SMILES>  (92) 
O=C(O)c1nn(Cc2c(Cl)cc(Cl)cc2)c2c1cccc2

>  <standardized_failed>  (92) 
False

$$$$

     RDKit          2D

 23 23  0  0  0  0  0  0  0  0999 V2000
    5.6542   -8.4917    0.0000 C   0  0  0  0  0  0  0  0  0  0  0  0
    4.8292   -8.4917    0.0000 C   0  0  0  0  0  0  0  0  0  0  0  0
    2.3500   -8.4917    0.0000 S   0  0  0  0  0  0  0  0  0  0  0  0
    4.4167   -9.2042    0.0000 C   0  0  0  0  0  0  0  0  0  0  0  0
    4.4167   -7.7792    0.0000 C   0  0  0  0  0  0  0  0  0  0  0  0
    3.1750   -8.4917    0.0000 C   0  0  0  0  0  0  0  0  0  0  0  0
    6.0667   -7.7750    0.0000 C   0  0  0  0  0  0  0  0  0  0  0  0
    5.6542   -7.0625    0.0000 N   0  0  0  0  0  0  0  0  0  0  0  0
    3.5875   -9.2042    0.0000 C   0  0  0  0  0  0  0  0  0  0  0  0
    3.5875   -7.7792    0.0000 C   0  0  0  0  0  0  0  0  0  0  0  0
    6.0667   -9.2042    0.0000 O   0  0  0  0  0  0  0  0  0  0  0  0
    1.9375   -7.7792    0.0000 C   0  0  0  0  0  0  0  0  0  0  0  0
    4.8250   -7.0625    0.0000 C   0  0  0  0  0  0  0  0  0  0  0  0
    6.8917   -7.7750    0.0000 C   0  0  0  0  0  0  0  0  0  0  0  0
    4.4125   -6.3500    0.0000 C   0  0  0  0  0  0  0  0  0  0  0  0
    2.3500   -7.0625    0.0000 C   0  0  0  0  0  0  0  0  0  0  0  0
    1.1042   -7.7792    0.0000 C   0  0  0  0  0  0  0  0  0  0  0  0
    1.1000   -4.9250    0.0000 C   0  0  0  0  0  0  0  0  0  0  0  0
    1.9292   -4.9250    0.0000 C   0  0  0  0  0  0  0  0  0  0  0  0
    2.3417   -5.6375    0.0000 C   0  0  0  0  0  0  0  0  0  0  0  0
    3.5792   -6.3500    0.0000 C   0  0  0  0  0  0  0  0  0  0  0  0
    3.1667   -5.6375    0.0000 C   0  0  0  0  0  0  0  0  0  0  0  0
    0.6875   -4.2125    0.0000 C   0  0  0  0  0  0  0  0  0  0  0  0
  2  1  1  0
  3  6  1  0
  4  2  2  0
  5  2  1  0
  6 10  1  0
  7  1  1  0
  8  7  1  0
  9  4  1  0
 10  5  2  0
 11  1  1  0
 12  3  1  0
 13  8  1  0
 14  7  1  0
 15 13  1  0
 16 12  1  0
 17 12  1  0
 18 19  1  0
 19 20  1  0
 20 22  1  0
 21 15  1  0
 22 21  1  0
 23 18  1  0
  9  6  2  0
M  END
>  <ID>  (93) 


>  <MOLENAME>  (93) 
SULOCTIDIL

>  <therap>  (93) 
peripheral vasodilator

>  <ref>  (93) 
hepatotoxic at clinical dose (600mg)

>  <cas#>  (93) 
54063-56-8, 54767-75-8

>  <source>  (93) 
synthetic; MJF-12637, CP-556S

>  <status>  (93) 
USAN, INN, BAN

>  <tradename>  (93) 
nan

>  <SMILES>  (93) 
CCCCCCCCNC(C)C(O)c1ccc(SC(C)C)cc1

>  <standardized_failed>  (93) 
False

$$$$

     RDKit          2D

 19 21  0  0  0  0  0  0  0  0999 V2000
    1.6375   -0.5375    0.0000 C   0  0  0  0  0  0  0  0  0  0  0  0
    0.8167   -0.5375    0.0000 C   0  0  0  0  0  0  0  0  0  0  0  0
    0.4042    0.1833    0.0000 C   0  0  0  0  0  0  0  0  0  0  0  0
    2.0500    0.1750    0.0000 C   0  0  0  0  0  0  0  0  0  0  0  0
    4.3167   -2.3750    0.0000 C   0  0  0  0  0  0  0  0  0  0  0  0
   -0.4083    0.0083    0.0000 O   0  0  0  0  0  0  0  0  0  0  0  0
    2.1875   -1.1417    0.0000 C   0  0  0  0  0  0  0  0  0  0  0  0
    4.3167   -3.2000    0.0000 O   0  0  0  0  0  0  0  0  0  0  0  0
    0.8125    0.8875    0.0000 C   0  0  0  0  0  0  0  0  0  0  0  0
    1.6375    0.8875    0.0000 C   0  0  0  0  0  0  0  0  0  0  0  0
    2.8542    0.0083    0.0000 C   0  0  0  0  0  0  0  0  0  0  0  0
    2.9375   -0.8125    0.0000 C   0  0  0  0  0  0  0  0  0  0  0  0
    3.6042   -1.9667    0.0000 N   0  0  0  0  0  0  0  0  0  0  0  0
   -0.4958   -0.8125    0.0000 C   0  0  0  0  0  0  0  0  0  0  0  0
    0.2625   -1.1417    0.0000 C   0  0  0  0  0  0  0  0  0  0  0  0
    2.8917   -2.3792    0.0000 C   0  0  0  0  0  0  0  0  0  0  0  0
    5.0292   -1.9625    0.0000 C   0  0  0  0  0  0  0  0  0  0  0  0
    2.1792   -1.9667    0.0000 C   0  0  0  0  0  0  0  0  0  0  0  0
    5.7417   -2.3667    0.0000 C   0  0  0  0  0  0  0  0  0  0  0  0
  2  1  1  0
  3  2  2  0
  4  1  2  0
  5 13  1  0
  6  3  1  0
  7  1  1  0
  8  5  2  0
  9 10  2  0
 10  4  1  0
 11  4  1  0
 12  7  1  0
 13 16  1  0
 14 15  1  0
 15  2  1  0
 16 18  1  0
 17  5  1  0
  7 18  1  1
 19 17  1  0
 11 12  1  0
  3  9  1  0
 14  6  1  0
M  END
>  <ID>  (94) 


>  <MOLENAME>  (94) 
RAMELTEON

>  <therap>  (94) 
melatonin receptor agonist

>  <ref>  (94) 
Neuropharmacol 48:301 (2005); J Clin Pharmacol 47:485 (2007); CNS Neurosci Ther 15:32 (2008)

>  <cas#>  (94) 
196597-26-9

>  <source>  (94) 
synthetic; TAK-375; M-II

>  <status>  (94) 
USAN, INN

>  <tradename>  (94) 
ROZEREM

>  <SMILES>  (94) 
CCC(=O)NCC[C@@H]1CCc2c1c1c(cc2)OCC1

>  <standardized_failed>  (94) 
False

$$$$

     RDKit          2D

 19 20  0  0  0  0  0  0  0  0999 V2000
    5.0417   -3.5917    0.0000 S   0  0  0  0  0  0  0  0  0  0  0  0
    5.7667   -3.1875    0.0000 N   0  0  0  0  0  0  0  0  0  0  0  0
    6.4875   -3.6125    0.0000 C   0  0  0  0  0  0  0  0  0  0  0  0
    4.3167   -4.0042    0.0000 C   0  0  0  0  0  0  0  0  0  0  0  0
    7.2000   -3.2000    0.0000 N   0  0  0  0  0  0  0  0  0  0  0  0
    6.4875   -4.4417    0.0000 N   0  0  0  0  0  0  0  0  0  0  0  0
    5.0500   -4.2792    0.0000 O   0  0  0  0  0  0  0  0  0  0  0  0
    4.6292   -2.8667    0.0000 O   0  0  0  0  0  0  0  0  0  0  0  0
    7.9167   -4.4417    0.0000 C   0  0  0  0  0  0  0  0  0  0  0  0
    4.3042   -4.8292    0.0000 C   0  0  0  0  0  0  0  0  0  0  0  0
    3.6042   -3.5792    0.0000 C   0  0  0  0  0  0  0  0  0  0  0  0
    7.2000   -4.8542    0.0000 C   0  0  0  0  0  0  0  0  0  0  0  0
    7.9167   -3.6125    0.0000 C   0  0  0  0  0  0  0  0  0  0  0  0
    2.8667   -4.8125    0.0000 C   0  0  0  0  0  0  0  0  0  0  0  0
    2.1250   -5.2042    0.0000 N   0  0  0  0  0  0  0  0  0  0  0  0
    2.8792   -3.9875    0.0000 C   0  0  0  0  0  0  0  0  0  0  0  0
    3.5917   -5.2417    0.0000 C   0  0  0  0  0  0  0  0  0  0  0  0
    8.6375   -4.8625    0.0000 O   0  0  0  0  0  0  0  0  0  0  0  0
    8.6292   -5.6917    0.0000 C   0  0  0  0  0  0  0  0  0  0  0  0
  2  1  1  0
  3  2  1  0
  4  1  1  0
  5  3  2  0
  6  3  1  0
  7  1  2  0
  8  1  2  0
  9 12  1  0
 10  4  2  0
 11  4  1  0
 12  6  2  0
 13  5  1  0
 14 16  1  0
 15 14  1  0
 16 11  2  0
 17 10  1  0
 18  9  1  0
 19 18  1  0
 17 14  2  0
  9 13  2  0
M  END
>  <ID>  (95) 


>  <MOLENAME>  (95) 
SULFAMETER

>  <therap>  (95) 
antibacterial

>  <ref>  (95) 
Arzneim Forsch 11:682, 695 (1961); Chemotherapy 14:195 (1969)

>  <cas#>  (95) 
651-06-9

>  <source>  (95) 
synthetic; AHR-857

>  <status>  (95) 
USAN, INN, BAN

>  <tradename>  (95) 
SULLA

>  <SMILES>  (95) 
COc1cnc(NS(=O)(=O)c2ccc(N)cc2)nc1

>  <standardized_failed>  (95) 
False

$$$$

     RDKit          2D

 19 20  0  0  0  0  0  0  0  0999 V2000
    6.5292   -2.3167    0.0000 S   0  0  0  0  0  0  0  0  0  0  0  0
    6.3250   -3.1125    0.0000 N   0  0  0  0  0  0  0  0  0  0  0  0
    6.9042   -3.6875    0.0000 C   0  0  0  0  0  0  0  0  0  0  0  0
    6.6917   -4.4750    0.0000 N   0  0  0  0  0  0  0  0  0  0  0  0
    7.2750   -5.0542    0.0000 N   0  0  0  0  0  0  0  0  0  0  0  0
    6.7292   -1.5167    0.0000 C   0  0  0  0  0  0  0  0  0  0  0  0
    5.7042   -1.9667    0.0000 O   0  0  0  0  0  0  0  0  0  0  0  0
    7.3292   -2.5250    0.0000 O   0  0  0  0  0  0  0  0  0  0  0  0
    8.0625   -4.8417    0.0000 C   0  0  0  0  0  0  0  0  0  0  0  0
    6.1417   -0.9417    0.0000 C   0  0  0  0  0  0  0  0  0  0  0  0
    7.5250   -1.2917    0.0000 C   0  0  0  0  0  0  0  0  0  0  0  0
    7.7042   -3.4750    0.0000 C   0  0  0  0  0  0  0  0  0  0  0  0
    7.1375    0.0833    0.0000 C   0  0  0  0  0  0  0  0  0  0  0  0
    8.2750   -4.0417    0.0000 C   0  0  0  0  0  0  0  0  0  0  0  0
    7.3292    0.8875    0.0000 N   0  0  0  0  0  0  0  0  0  0  0  0
    7.7292   -0.4917    0.0000 C   0  0  0  0  0  0  0  0  0  0  0  0
    6.3417   -0.1542    0.0000 C   0  0  0  0  0  0  0  0  0  0  0  0
    8.6375   -5.4292    0.0000 O   0  0  0  0  0  0  0  0  0  0  0  0
    9.4292   -5.2292    0.0000 C   0  0  0  0  0  0  0  0  0  0  0  0
  2  1  1  0
  3  2  1  0
  4  3  2  0
  5  4  1  0
  6  1  1  0
  7  1  2  0
  8  1  2  0
  9 14  1  0
 10  6  2  0
 11  6  1  0
 12  3  1  0
 13 16  1  0
 14 12  2  0
 15 13  1  0
 16 11  2  0
 17 10  1  0
 18  9  1  0
 19 18  1  0
 17 13  2  0
  5  9  2  0
M  END
>  <ID>  (96) 


>  <MOLENAME>  (96) 
SULFAMETHOXYPYRIDAZINE

>  <therap>  (96) 
antibacterial

>  <ref>  (96) 
Arzneim Forsch 15:1441 (1965); Chemotherapy 14:195 (1969)

>  <cas#>  (96) 
80-35-3

>  <source>  (96) 
synthetic

>  <status>  (96) 
USP-XVII, INN, BAN

>  <tradename>  (96) 
MIDICEL

>  <SMILES>  (96) 
COc1nnc(NS(=O)(=O)c2ccc(N)cc2)cc1

>  <standardized_failed>  (96) 
False

$$$$

     RDKit          2D

 19 20  0  0  0  0  0  0  0  0999 V2000
    3.6292   -2.1667    0.0000 S   0  0  0  0  0  0  0  0  0  0  0  0
    4.3417   -2.5792    0.0000 C   0  0  0  0  0  0  0  0  0  0  0  0
    2.9167   -2.5792    0.0000 C   0  0  0  0  0  0  0  0  0  0  0  0
    5.0542   -2.1667    0.0000 C   0  0  0  0  0  0  0  0  0  0  0  0
    3.6292   -1.3417    0.0000 O   0  0  0  0  0  0  0  0  0  0  0  0
    5.7750   -2.5792    0.0000 O   0  0  0  0  0  0  0  0  0  0  0  0
    2.9167   -3.4042    0.0000 C   0  0  0  0  0  0  0  0  0  0  0  0
    2.1917   -2.1667    0.0000 C   0  0  0  0  0  0  0  0  0  0  0  0
    5.0542   -1.3417    0.0000 N   0  0  0  0  0  0  0  0  0  0  0  0
    2.2042   -3.8167    0.0000 C   0  0  0  0  0  0  0  0  0  0  0  0
    3.6292   -3.8125    0.0000 C   0  0  0  0  0  0  0  0  0  0  0  0
    1.4792   -2.5792    0.0000 C   0  0  0  0  0  0  0  0  0  0  0  0
    2.1917   -1.3417    0.0000 C   0  0  0  0  0  0  0  0  0  0  0  0
    3.6375   -4.6375    0.0000 C   0  0  0  0  0  0  0  0  0  0  0  0
    1.4792   -0.9292    0.0000 C   0  0  0  0  0  0  0  0  0  0  0  0
    0.7667   -2.1667    0.0000 C   0  0  0  0  0  0  0  0  0  0  0  0
    2.2042   -4.6417    0.0000 C   0  0  0  0  0  0  0  0  0  0  0  0
    0.7667   -1.3417    0.0000 C   0  0  0  0  0  0  0  0  0  0  0  0
    2.9167   -5.0542    0.0000 C   0  0  0  0  0  0  0  0  0  0  0  0
  2  1  1  0
  3  1  1  0
  4  2  1  0
  5  1  2  0
  6  4  2  0
  7  3  1  0
  8  3  1  0
  9  4  1  0
 10  7  2  0
 11  7  1  0
 12  8  2  0
 13  8  1  0
 14 11  2  0
 15 13  2  0
 16 12  1  0
 17 10  1  0
 18 15  1  0
 19 14  1  0
 18 16  2  0
 19 17  2  0
M  END
>  <ID>  (97) 


>  <MOLENAME>  (97) 
ARMODAFINIL

>  <therap>  (97) 
analeptic

>  <ref>  (97) 
Expert Opin Invest Drugs 17:565 (2008); Clin Drug Invest 29:87, 601(2009); J Clin Psychiatry 71:32 (2010)

>  <cas#>  (97) 
112111-43-0

>  <source>  (97) 
synthetic; R-enatiomer of modafinil (01505361)

>  <status>  (97) 
USAN

>  <tradename>  (97) 
NUVIGIL

>  <SMILES>  (97) 
NC(=O)C[S+]([O-])C(c1ccccc1)c1ccccc1

>  <standardized_failed>  (97) 
False

$$$$

     RDKit          2D

 12 13  0  0  0  0  0  0  0  0999 V2000
   -2.5958    0.7625    0.0000 S   0  0  0  0  0  0  0  0  0  0  0  0
   -2.1333    1.4458    0.0000 N   0  0  0  0  0  0  0  0  0  0  0  0
   -2.5958    2.1000    0.0000 C   0  0  0  0  0  0  0  0  0  0  0  0
   -3.3958    1.8458    0.0000 C   0  0  0  0  0  0  0  0  0  0  0  0
   -3.3958    1.0000    0.0000 C   0  0  0  0  0  0  0  0  0  0  0  0
   -1.9958    0.1625    0.0000 O   0  0  0  0  0  0  0  0  0  0  0  0
   -3.0708    0.0625    0.0000 O   0  0  0  0  0  0  0  0  0  0  0  0
   -2.3125    2.9000    0.0000 O   0  0  0  0  0  0  0  0  0  0  0  0
   -4.1125    2.2708    0.0000 C   0  0  0  0  0  0  0  0  0  0  0  0
   -4.1125    0.5833    0.0000 C   0  0  0  0  0  0  0  0  0  0  0  0
   -4.8333    1.8458    0.0000 C   0  0  0  0  0  0  0  0  0  0  0  0
   -4.8333    1.0000    0.0000 C   0  0  0  0  0  0  0  0  0  0  0  0
  2  1  1  0
  3  2  1  0
  4  5  2  0
  5  1  1  0
  6  1  2  0
  7  1  2  0
  8  3  2  0
  9  4  1  0
 10  5  1  0
 11 12  1  0
 12 10  2  0
  4  3  1  0
 11  9  2  0
M  END
>  <ID>  (98) 


>  <MOLENAME>  (98) 
SACCHARIN

>  <therap>  (98) 
sweetener

>  <ref>  (98) 
Fundam Appl Toxicol 4:674 (1984); Food Chem Toxicol 23:419 (1985)

>  <cas#>  (98) 
81-07-2

>  <source>  (98) 
synthetic

>  <status>  (98) 
USAN, NF

>  <tradename>  (98) 
GARANTOSE

>  <SMILES>  (98) 
O=C1NS(=O)(=O)c2c1cccc2

>  <standardized_failed>  (98) 
False

$$$$

     RDKit          2D

 14 15  0  0  0  0  0  0  0  0999 V2000
    4.0458   -1.1792    0.0000 N   0  0  0  0  0  0  0  0  0  0  0  0
    3.2625   -0.9250    0.0000 C   0  0  0  0  0  0  0  0  0  0  0  0
    4.0458   -2.0042    0.0000 C   0  0  0  0  0  0  0  0  0  0  0  0
    2.7792   -1.5917    0.0000 C   0  0  0  0  0  0  0  0  0  0  0  0
    3.2625   -2.2625    0.0000 C   0  0  0  0  0  0  0  0  0  0  0  0
    3.0083   -0.1417    0.0000 O   0  0  0  0  0  0  0  0  0  0  0  0
    4.7125   -2.4917    0.0000 O   0  0  0  0  0  0  0  0  0  0  0  0
    1.9542   -1.5917    0.0000 C   0  0  0  0  0  0  0  0  0  0  0  0
    4.7125   -0.6958    0.0000 C   0  0  0  0  0  0  0  0  0  0  0  0
    1.5417   -2.3042    0.0000 C   0  0  0  0  0  0  0  0  0  0  0  0
    1.5417   -0.8792    0.0000 C   0  0  0  0  0  0  0  0  0  0  0  0
    0.7167   -2.3042    0.0000 C   0  0  0  0  0  0  0  0  0  0  0  0
    0.7167   -0.8833    0.0000 C   0  0  0  0  0  0  0  0  0  0  0  0
    0.3083   -1.5958    0.0000 C   0  0  0  0  0  0  0  0  0  0  0  0
  2  1  1  0
  3  1  1  0
  4  2  1  0
  5  3  1  0
  6  2  2  0
  7  3  2  0
  8  4  1  0
  9  1  1  0
 10  8  2  0
 11  8  1  0
 12 10  1  0
 13 11  2  0
 14 12  2  0
  5  4  1  0
 14 13  1  0
M  END
>  <ID>  (99) 


>  <MOLENAME>  (99) 
PHENSUCCIMIDE

>  <therap>  (99) 
anticonvulsant

>  <ref>  (99) 
J Lab Clin Med 41:78 (1953)

>  <cas#>  (99) 
86-34-0

>  <source>  (99) 
synthetic

>  <status>  (99) 
USP, INN, BAN

>  <tradename>  (99) 
MILONTIN

>  <SMILES>  (99) 
CN1C(=O)CC(c2ccccc2)C1=O

>  <standardized_failed>  (99) 
False

$$$$

     RDKit          2D

 31 35  0  0  0  0  0  0  0  0999 V2000
    7.5417   -4.8000    0.0000 C   0  0  0  0  0  0  0  0  0  0  0  0
    6.7542   -5.0542    0.0000 C   0  0  0  0  0  0  0  0  0  0  0  0
    4.6125   -6.2917    0.0000 C   0  0  0  0  0  0  0  0  0  0  0  0
    6.7542   -5.8792    0.0000 C   0  0  0  0  0  0  0  0  0  0  0  0
    4.6125   -7.1167    0.0000 C   0  0  0  0  0  0  0  0  0  0  0  0
    6.0417   -6.2917    0.0000 C   0  0  0  0  0  0  0  0  0  0  0  0
    5.3250   -5.8792    0.0000 C   0  0  0  0  0  0  0  0  0  0  0  0
    8.0250   -5.4667    0.0000 C   0  0  0  0  0  0  0  0  0  0  0  0
    8.2000   -4.2417    0.0000 O   0  0  0  0  0  0  0  0  0  0  0  0
    6.0375   -4.6417    0.0000 C   0  0  0  0  0  0  0  0  0  0  0  0
    8.9417   -4.5542    0.0000 C   0  0  0  0  0  0  0  0  0  0  0  0
    5.3250   -5.0542    0.0000 C   0  0  0  0  0  0  0  0  0  0  0  0
    8.7917   -5.4625    0.0000 O   0  0  0  0  0  0  0  0  0  0  0  0
    7.5417   -6.1375    0.0000 C   0  0  0  0  0  0  0  0  0  0  0  0
    6.0417   -7.1167    0.0000 C   0  0  0  0  0  0  0  0  0  0  0  0
    5.3250   -7.5292    0.0000 C   0  0  0  0  0  0  0  0  0  0  0  0
    3.9000   -7.5292    0.0000 C   0  0  0  0  0  0  0  0  0  0  0  0
    7.3542   -3.7792    0.0000 C   0  0  0  0  0  0  0  0  0  0  0  0
    3.9000   -5.8792    0.0000 C   0  0  0  0  0  0  0  0  0  0  0  0
    3.1792   -7.1167    0.0000 C   0  0  0  0  0  0  0  0  0  0  0  0
    6.5667   -3.5667    0.0000 O   0  0  0  0  0  0  0  0  0  0  0  0
    2.4625   -7.5292    0.0000 O   0  0  0  0  0  0  0  0  0  0  0  0
    6.7542   -4.2292    0.0000 C   0  0  0  0  0  0  0  0  0  0  0  0
    3.1792   -6.2917    0.0000 C   0  0  0  0  0  0  0  0  0  0  0  0
    4.6125   -5.4667    0.0000 C   0  0  0  0  0  0  0  0  0  0  0  0
    5.3250   -8.3542    0.0000 F   0  0  0  0  0  0  0  0  0  0  0  0
    4.6042   -4.6292    0.0000 O   0  0  0  0  0  0  0  0  0  0  0  0
    7.9417   -3.1917    0.0000 C   0  0  0  0  0  0  0  0  0  0  0  0
    9.3542   -3.8417    0.0000 C   0  0  0  0  0  0  0  0  0  0  0  0
    9.7667   -4.5542    0.0000 C   0  0  0  0  0  0  0  0  0  0  0  0
    7.6417   -2.4292    0.0000 O   0  0  0  0  0  0  0  0  0  0  0  0
  2  1  1  0
  3  7  1  0
  4  2  1  0
  5  3  1  0
  6  4  1  0
  7 12  1  0
  8  1  1  0
  1  9  1  0
 10  2  1  0
 11  9  1  0
 12 10  1  0
  8 13  1  0
  8 14  1  6
 15  6  1  0
 16 15  1  0
 17  5  2  0
  1 18  1  1
 19  3  1  0
 20 24  1  0
 21 18  2  0
 22 20  2  0
  2 23  1  1
 24 19  1  0
  3 25  1  1
 16 26  1  6
 12 27  1  1
 28 18  1  0
 29 11  1  0
 30 11  1  0
 31 28  1  0
  4 14  1  0
 11 13  1  0
  6  7  1  0
  5 16  1  0
 17 20  1  0
M  END
>  <ID>  (100) 


>  <MOLENAME>  (100) 
FLURANDRENOLIDE

>  <therap>  (100) 
antiinflammatory

>  <ref>  (100) 
J. Invest. Dermatol. (1965), 45(5), 347-54; Arch. Dermatol. (1964), 89, 404-10; Skin (1963), 2, 311-2

>  <cas#>  (100) 
1524-88-5

>  <source>  (100) 
semisynthetic; 33379

>  <status>  (100) 
USP, INN, BAN, JAN

>  <tradename>  (100) 
CORDRAN

>  <SMILES>  (100) 
CC1(C)O[C@@H]2CC3C4C[C@H](F)C5=CC(=O)CC[C@]5(C)C4[C@@H](O)C[C@]3(C)[C@]2(C(=O)CO)O1

>  <standardized_failed>  (100) 
False

$$$$

     RDKit          2D

 29 32  0  0  0  0  0  0  0  0999 V2000
    4.0125   -2.1750    0.0000 N   0  0  0  0  0  0  0  0  0  0  0  0
    4.7292   -2.5917    0.0000 C   0  0  0  0  0  0  0  0  0  0  0  0
    4.0125   -3.8333    0.0000 S   0  0  0  0  0  0  0  0  0  0  0  0
    4.7292   -3.4167    0.0000 C   0  0  0  0  0  0  0  0  0  0  0  0
    3.3000   -2.5917    0.0000 C   0  0  0  0  0  0  0  0  0  0  0  0
    3.2958   -3.4167    0.0000 C   0  0  0  0  0  0  0  0  0  0  0  0
    5.4333   -2.1667    0.0000 C   0  0  0  0  0  0  0  0  0  0  0  0
    6.1458   -2.5792    0.0000 C   0  0  0  0  0  0  0  0  0  0  0  0
    5.4417    0.3000    0.0000 N   0  0  0  0  0  0  0  0  0  0  0  0
    6.8625   -2.1625    0.0000 C   0  0  0  0  0  0  0  0  0  0  0  0
    5.4417   -3.8292    0.0000 C   0  0  0  0  0  0  0  0  0  0  0  0
    6.1542   -3.4167    0.0000 C   0  0  0  0  0  0  0  0  0  0  0  0
    6.8583   -1.3375    0.0000 O   0  0  0  0  0  0  0  0  0  0  0  0
    4.0125   -1.3500    0.0000 C   0  0  0  0  0  0  0  0  0  0  0  0
    4.7292   -0.9375    0.0000 C   0  0  0  0  0  0  0  0  0  0  0  0
    6.1583   -0.1167    0.0000 C   0  0  0  0  0  0  0  0  0  0  0  0
    5.4417    1.1208    0.0000 C   0  0  0  0  0  0  0  0  0  0  0  0
    4.7292   -0.1125    0.0000 C   0  0  0  0  0  0  0  0  0  0  0  0
    6.1583    1.5292    0.0000 C   0  0  0  0  0  0  0  0  0  0  0  0
    6.8708    0.2917    0.0000 C   0  0  0  0  0  0  0  0  0  0  0  0
    2.5833   -2.1792    0.0000 C   0  0  0  0  0  0  0  0  0  0  0  0
    6.8750    1.1167    0.0000 C   0  0  0  0  0  0  0  0  0  0  0  0
    2.5833   -3.8333    0.0000 C   0  0  0  0  0  0  0  0  0  0  0  0
    9.0208    1.5208    0.0000 O   0  0  0  0  0  0  0  0  0  0  0  0
    7.5750   -2.5750    0.0000 C   0  0  0  0  0  0  0  0  0  0  0  0
    8.3042    1.1125    0.0000 C   0  0  0  0  0  0  0  0  0  0  0  0
    7.5917    1.5250    0.0000 C   0  0  0  0  0  0  0  0  0  0  0  0
    1.8708   -2.5917    0.0000 C   0  0  0  0  0  0  0  0  0  0  0  0
    1.8708   -3.4208    0.0000 C   0  0  0  0  0  0  0  0  0  0  0  0
  2  1  1  0
  3  4  1  0
  4  2  2  0
  5  1  1  0
  6  5  2  0
  7  2  1  0
  8  7  2  0
  9 18  1  0
 10  8  1  0
 11  4  1  0
 12  8  1  0
 13 10  2  0
 14  1  1  0
 15 14  1  0
 16  9  1  0
 17  9  1  0
 18 15  1  0
 19 17  1  0
 20 16  1  0
 21  5  1  0
 22 19  1  0
 23  6  1  0
 24 26  1  0
 25 10  1  0
 26 27  1  0
 27 22  1  0
 28 21  2  0
 29 23  2  0
  3  6  1  0
 12 11  2  0
 29 28  1  0
 22 20  1  0
M  END
>  <ID>  (101) 


>  <MOLENAME>  (101) 
PIPERACETAZINE

>  <therap>  (101) 
antipsychotic

>  <ref>  (101) 
Curr Ther Res 16:124 (1974); JAMA 215:783 (1971)

>  <cas#>  (101) 
3819-00-9

>  <source>  (101) 
synthetic; PC-1421

>  <status>  (101) 
USAN, USP-XXII, INN

>  <tradename>  (101) 
QUIDE

>  <SMILES>  (101) 
CC(=O)c1cc2c(cc1)Sc1c(cccc1)N2CCCN1CCC(CCO)CC1

>  <standardized_failed>  (101) 
False

$$$$

     RDKit          2D

 17 17  0  0  0  0  0  0  0  0999 V2000
    2.5458   -3.1208    0.0000 C   0  0  0  0  0  0  0  0  0  0  0  0
    3.2583   -2.7042    0.0000 O   0  0  0  0  0  0  0  0  0  0  0  0
    4.6875   -2.7000    0.0000 C   0  0  0  0  0  0  0  0  0  0  0  0
    4.7708   -1.8750    0.0000 N   0  0  0  0  0  0  0  0  0  0  0  0
    3.9750   -3.1125    0.0000 C   0  0  0  0  0  0  0  0  0  0  0  0
    5.4417   -3.0292    0.0000 N   0  0  0  0  0  0  0  0  0  0  0  0
    1.8292   -2.7083    0.0000 C   0  0  0  0  0  0  0  0  0  0  0  0
    2.5458   -3.9500    0.0000 C   0  0  0  0  0  0  0  0  0  0  0  0
    1.8250   -1.8833    0.0000 Cl  0  0  0  0  0  0  0  0  0  0  0  0
    3.2625   -4.3625    0.0000 Cl  0  0  0  0  0  0  0  0  0  0  0  0
    7.7000   -3.1542    0.0000 Cl  0  0  0  0  0  0  0  0  0  0  0  0
    5.5750   -1.7000    0.0000 C   0  0  0  0  0  0  0  0  0  0  0  0
    5.9917   -2.4167    0.0000 C   0  0  0  0  0  0  0  0  0  0  0  0
    1.1167   -3.9500    0.0000 C   0  0  0  0  0  0  0  0  0  0  0  0
    1.8292   -4.3625    0.0000 C   0  0  0  0  0  0  0  0  0  0  0  0
    1.1167   -3.1250    0.0000 C   0  0  0  0  0  0  0  0  0  0  0  0
    3.9750   -3.9375    0.0000 C   0  0  0  0  0  0  0  0  0  0  0  0
  2  1  1  0
  3  5  1  0
  4  3  2  0
  5  2  1  0
  6  3  1  0
  7  1  2  0
  8  1  1  0
  9  7  1  0
 10  8  1  0
 12  4  1  0
 13  6  1  0
 14 16  2  0
 15  8  2  0
 16  7  1  0
 17  5  1  0
 15 14  1  0
 12 13  1  0
M  END
>  <ID>  (102) 


>  <MOLENAME>  (102) 
LOFEXIDINE  HYDROCHLORIDE

>  <therap>  (102) 
antihypertensive

>  <ref>  (102) 
J Pharmacol 8:351 (1977); Biochem Pharmacol 28:141 (1979); Arzneim Forsch 32:915, 955 (1982)

>  <cas#>  (102) 
21498-08-8

>  <source>  (102) 
synthetic;MDL-14042

>  <status>  (102) 
USAN, INN, BAN

>  <tradename>  (102) 
BRITLOFEX

>  <SMILES>  (102) 
CC(Oc1c(Cl)cccc1Cl)C1=NCCN1

>  <standardized_failed>  (102) 
False

$$$$

     RDKit          2D

 31 35  0  0  0  0  0  0  0  0999 V2000
    7.0917   -1.6167    0.0000 C   0  0  0  0  0  0  0  0  0  0  0  0
    6.3125   -1.8750    0.0000 C   0  0  0  0  0  0  0  0  0  0  0  0
    4.1667   -3.1167    0.0000 C   0  0  0  0  0  0  0  0  0  0  0  0
    4.1667   -3.9417    0.0000 C   0  0  0  0  0  0  0  0  0  0  0  0
    6.3125   -2.7042    0.0000 C   0  0  0  0  0  0  0  0  0  0  0  0
    5.5917   -3.1167    0.0000 C   0  0  0  0  0  0  0  0  0  0  0  0
    4.8792   -2.7042    0.0000 C   0  0  0  0  0  0  0  0  0  0  0  0
    7.5792   -2.2875    0.0000 C   0  0  0  0  0  0  0  0  0  0  0  0
    7.5792   -0.9542    0.0000 O   0  0  0  0  0  0  0  0  0  0  0  0
    3.4542   -2.7042    0.0000 C   0  0  0  0  0  0  0  0  0  0  0  0
    5.5917   -1.4625    0.0000 C   0  0  0  0  0  0  0  0  0  0  0  0
    8.3667   -1.2167    0.0000 C   0  0  0  0  0  0  0  0  0  0  0  0
    4.8792   -1.8750    0.0000 C   0  0  0  0  0  0  0  0  0  0  0  0
    8.3667   -2.0292    0.0000 O   0  0  0  0  0  0  0  0  0  0  0  0
    7.0917   -2.9542    0.0000 C   0  0  0  0  0  0  0  0  0  0  0  0
    5.5917   -3.9417    0.0000 C   0  0  0  0  0  0  0  0  0  0  0  0
    4.8792   -4.3542    0.0000 C   0  0  0  0  0  0  0  0  0  0  0  0
    3.4542   -4.3542    0.0000 C   0  0  0  0  0  0  0  0  0  0  0  0
    6.7625   -0.8625    0.0000 C   0  0  0  0  0  0  0  0  0  0  0  0
    2.7375   -3.1167    0.0000 C   0  0  0  0  0  0  0  0  0  0  0  0
    2.7375   -3.9417    0.0000 C   0  0  0  0  0  0  0  0  0  0  0  0
    7.2500   -0.1917    0.0000 O   0  0  0  0  0  0  0  0  0  0  0  0
    2.0167   -4.3625    0.0000 O   0  0  0  0  0  0  0  0  0  0  0  0
    6.3042   -1.0500    0.0000 C   0  0  0  0  0  0  0  0  0  0  0  0
    4.1667   -2.2875    0.0000 C   0  0  0  0  0  0  0  0  0  0  0  0
    4.8792   -5.1792    0.0000 F   0  0  0  0  0  0  0  0  0  0  0  0
    4.1542   -1.4500    0.0000 O   0  0  0  0  0  0  0  0  0  0  0  0
    5.9375   -0.7667    0.0000 C   0  0  0  0  0  0  0  0  0  0  0  0
    9.1792   -1.3542    0.0000 C   0  0  0  0  0  0  0  0  0  0  0  0
    8.8542   -0.5500    0.0000 C   0  0  0  0  0  0  0  0  0  0  0  0
    5.6125   -0.0917    0.0000 O   0  0  0  0  0  0  0  0  0  0  0  0
  2  1  1  0
  3  7  1  0
  4  3  1  0
  5  2  1  0
  6  5  1  0
  7 13  1  0
  8  1  1  0
  1  9  1  0
 10  3  1  0
 11  2  1  0
 12  9  1  0
 13 11  1  0
  8 14  1  0
  8 15  1  6
 16  6  1  0
 17 16  1  0
 18  4  2  0
  1 19  1  1
 20 10  2  0
 21 20  1  0
 22 19  2  0
 23 21  2  0
 24  2  1  0
 25  3  1  0
 17 26  1  6
 27 13  1  0
 28 19  1  0
 29 12  1  0
 30 12  1  0
 31 28  1  0
 15  5  1  0
 12 14  1  0
  7  6  1  0
 17  4  1  0
 21 18  1  0
M  END
>  <ID>  (103) 


>  <MOLENAME>  (103) 
FLUNISOLIDE

>  <therap>  (103) 
antiinflammatory

>  <ref>  (103) 
Pharmacotherapy (1984), 4(6), 334-42; Drugs (1980), 19(6), 397-411; Clin. Allergy (1980), 10(1), 65-70

>  <cas#>  (103) 
77326-96-6, 3385-03-3

>  <source>  (103) 
semisynthetic; RS-3999

>  <status>  (103) 
USP, INN, BAN, JAN

>  <tradename>  (103) 
AEROBID

>  <SMILES>  (103) 
CC1(C)O[C@@H]2CC3C4C[C@H](F)C5=CC(=O)C=CC5(C)C4C(O)CC3(C)[C@]2(C(=O)CO)O1

>  <standardized_failed>  (103) 
False

$$$$

     RDKit          2D

 29 32  0  0  0  0  0  0  0  0999 V2000
    4.6417   -2.7167    0.0000 C   0  0  0  0  0  0  0  0  0  0  0  0
    6.7917   -1.4667    0.0000 C   0  0  0  0  0  0  0  0  0  0  0  0
    5.3542   -2.3042    0.0000 C   0  0  0  0  0  0  0  0  0  0  0  0
    4.6417   -3.5417    0.0000 C   0  0  0  0  0  0  0  0  0  0  0  0
    6.7917   -2.3042    0.0000 C   0  0  0  0  0  0  0  0  0  0  0  0
    6.0750   -2.7167    0.0000 C   0  0  0  0  0  0  0  0  0  0  0  0
    7.5750   -1.2167    0.0000 C   0  0  0  0  0  0  0  0  0  0  0  0
    5.3542   -1.4667    0.0000 C   0  0  0  0  0  0  0  0  0  0  0  0
    3.9292   -2.3042    0.0000 C   0  0  0  0  0  0  0  0  0  0  0  0
    6.0667   -1.0542    0.0000 C   0  0  0  0  0  0  0  0  0  0  0  0
    8.0542   -1.8792    0.0000 C   0  0  0  0  0  0  0  0  0  0  0  0
    7.5750   -2.5542    0.0000 C   0  0  0  0  0  0  0  0  0  0  0  0
    6.0750   -3.5417    0.0000 C   0  0  0  0  0  0  0  0  0  0  0  0
    5.3542   -3.9542    0.0000 C   0  0  0  0  0  0  0  0  0  0  0  0
    3.9292   -3.9542    0.0000 C   0  0  0  0  0  0  0  0  0  0  0  0
    7.9125   -0.4667    0.0000 C   0  0  0  0  0  0  0  0  0  0  0  0
    3.2167   -2.7167    0.0000 C   0  0  0  0  0  0  0  0  0  0  0  0
    3.2167   -3.5417    0.0000 C   0  0  0  0  0  0  0  0  0  0  0  0
    5.3625   -3.2417    0.0000 F   0  0  0  0  0  0  0  0  0  0  0  0
    8.7292   -0.3792    0.0000 O   0  0  0  0  0  0  0  0  0  0  0  0
    2.4917   -3.9667    0.0000 O   0  0  0  0  0  0  0  0  0  0  0  0
    8.5667   -1.2542    0.0000 O   0  0  0  0  0  0  0  0  0  0  0  0
    4.6417   -1.8792    0.0000 C   0  0  0  0  0  0  0  0  0  0  0  0
    6.7667   -0.5542    0.0000 C   0  0  0  0  0  0  0  0  0  0  0  0
    4.6375   -1.0417    0.0000 O   0  0  0  0  0  0  0  0  0  0  0  0
    5.3542   -4.7792    0.0000 F   0  0  0  0  0  0  0  0  0  0  0  0
    7.4250    0.2083    0.0000 C   0  0  0  0  0  0  0  0  0  0  0  0
    8.8792   -1.8792    0.0000 C   0  0  0  0  0  0  0  0  0  0  0  0
    7.7292    1.0708    0.0000 O   0  0  0  0  0  0  0  0  0  0  0  0
  2 10  1  0
  3  1  1  0
  4  1  1  0
  5  6  1  0
  6  3  1  0
  7  2  1  0
  8  3  1  0
  9  1  1  0
 10  8  1  0
 11 12  1  0
 12  5  1  0
 13 14  1  0
 14  4  1  0
 15  4  2  0
 16  7  1  0
 17  9  2  0
 18 17  1  0
  3 19  1  6
 20 16  2  0
 21 18  2  0
  7 22  1  6
  1 23  1  1
  2 24  1  1
  8 25  1  1
 14 26  1  6
 27 16  1  0
 11 28  1  6
 29 27  1  0
 15 18  1  0
  6 13  1  0
  5  2  1  0
  7 11  1  0
M  END
>  <ID>  (104) 


>  <MOLENAME>  (104) 
FLUMETHASONE

>  <therap>  (104) 
antiinflammatory

>  <ref>  (104) 
California Med 104:363 (1966); Equine Vet J 5:162 (1973)

>  <cas#>  (104) 
2135-17-3

>  <source>  (104) 
semisynthetic; U-10974

>  <status>  (104) 
USAN, INN, BAN

>  <tradename>  (104) 
FLUCORT

>  <SMILES>  (104) 
C[C@@H]1CC2C3C[C@H](F)C4=CC(=O)C=C[C@]4(C)[C@@]3(F)[C@@H](O)C[C@]2(C)[C@@]1(O)C(=O)CO

>  <standardized_failed>  (104) 
False

$$$$

     RDKit          2D

 15 16  0  0  0  0  0  0  0  0999 V2000
   -0.1208   -0.1542    0.0000 C   0  0  0  0  0  0  0  0  0  0  0  0
    1.3125   -0.1542    0.0000 C   0  0  0  0  0  0  0  0  0  0  0  0
    0.6000    0.2583    0.0000 N   0  0  0  0  0  0  0  0  0  0  0  0
   -0.1208   -0.9792    0.0000 N   0  0  0  0  0  0  0  0  0  0  0  0
   -0.8333    0.2625    0.0000 S   0  0  0  0  0  0  0  0  0  0  0  0
    1.3042   -0.9875    0.0000 C   0  0  0  0  0  0  0  0  0  0  0  0
    2.0250    0.2500    0.0000 C   0  0  0  0  0  0  0  0  0  0  0  0
   -0.8333   -1.3875    0.0000 C   0  0  0  0  0  0  0  0  0  0  0  0
   -1.5375   -0.9792    0.0000 C   0  0  0  0  0  0  0  0  0  0  0  0
   -1.5375   -0.1542    0.0000 C   0  0  0  0  0  0  0  0  0  0  0  0
    2.7292   -0.9917    0.0000 C   0  0  0  0  0  0  0  0  0  0  0  0
    2.0167   -1.4000    0.0000 C   0  0  0  0  0  0  0  0  0  0  0  0
    2.7375   -0.1667    0.0000 C   0  0  0  0  0  0  0  0  0  0  0  0
    0.5875   -1.3917    0.0000 C   0  0  0  0  0  0  0  0  0  0  0  0
    2.0292    1.0750    0.0000 C   0  0  0  0  0  0  0  0  0  0  0  0
  2  3  1  0
  3  1  1  0
  4  1  2  0
  5  1  1  0
  6  2  2  0
  7  2  1  0
  8  4  1  0
  9 10  1  0
 10  5  1  0
 11 13  1  0
 12  6  1  0
 13  7  2  0
 14  6  1  0
 15  7  1  0
  9  8  1  0
 12 11  2  0
M  END
>  <ID>  (105) 


>  <MOLENAME>  (105) 
XYLAZINE

>  <therap>  (105) 
analgesic

>  <ref>  (105) 
Arch Pharmakol Exp Pathol 268:348 (1971)

>  <cas#>  (105) 
23076-35-9, 7361-61-7 [xylazine]

>  <source>  (105) 
synthetic

>  <status>  (105) 
USP, INN, BAN

>  <tradename>  (105) 
ROMPUN

>  <SMILES>  (105) 
Cc1c(NC2=NCCCS2)c(C)ccc1

>  <standardized_failed>  (105) 
False

$$$$

     RDKit          2D

 21 22  0  0  0  0  0  0  0  0999 V2000
    3.6167   -2.1875    0.0000 S   0  0  0  0  0  0  0  0  0  0  0  0
    4.3292   -2.1792    0.0000 N   0  0  0  0  0  0  0  0  0  0  0  0
    4.6875   -2.7917    0.0000 C   0  0  0  0  0  0  0  0  0  0  0  0
    2.7917   -2.1875    0.0000 C   0  0  0  0  0  0  0  0  0  0  0  0
    5.4000   -2.7917    0.0000 N   0  0  0  0  0  0  0  0  0  0  0  0
    5.7625   -3.4042    0.0000 N   0  0  0  0  0  0  0  0  0  0  0  0
    3.6125   -2.9042    0.0000 O   0  0  0  0  0  0  0  0  0  0  0  0
    3.6125   -1.4917    0.0000 O   0  0  0  0  0  0  0  0  0  0  0  0
    4.3375   -3.4167    0.0000 O   0  0  0  0  0  0  0  0  0  0  0  0
    2.3792   -2.9000    0.0000 C   0  0  0  0  0  0  0  0  0  0  0  0
    2.3792   -1.4750    0.0000 C   0  0  0  0  0  0  0  0  0  0  0  0
    1.5542   -2.9000    0.0000 C   0  0  0  0  0  0  0  0  0  0  0  0
    1.5542   -1.4792    0.0000 C   0  0  0  0  0  0  0  0  0  0  0  0
    1.1417   -2.1917    0.0000 C   0  0  0  0  0  0  0  0  0  0  0  0
    5.3292   -4.0042    0.0000 C   0  0  0  0  0  0  0  0  0  0  0  0
    6.4042   -3.3250    0.0000 C   0  0  0  0  0  0  0  0  0  0  0  0
    0.3167   -2.1917    0.0000 C   0  0  0  0  0  0  0  0  0  0  0  0
    6.9000   -3.8542    0.0000 C   0  0  0  0  0  0  0  0  0  0  0  0
    5.4250   -4.6167    0.0000 C   0  0  0  0  0  0  0  0  0  0  0  0
    6.0667   -4.9417    0.0000 C   0  0  0  0  0  0  0  0  0  0  0  0
    6.7417   -4.6042    0.0000 C   0  0  0  0  0  0  0  0  0  0  0  0
  2  1  1  0
  3  2  1  0
  4  1  1  0
  5  3  1  0
  6  5  1  0
  7  1  2  0
  8  1  2  0
  9  3  2  0
 10  4  2  0
 11  4  1  0
 12 10  1  0
 13 11  2  0
 14 13  1  0
 15  6  1  0
 16  6  1  0
 17 14  1  0
 18 16  1  0
 19 15  1  0
 20 19  1  0
 21 18  1  0
 14 12  2  0
 20 21  1  0
M  END
>  <ID>  (106) 


>  <MOLENAME>  (106) 
TOLAZAMIDE

>  <therap>  (106) 
antidiabetic

>  <ref>  (106) 
Proc Soc Exp Biol Med 107:245 (1961); Anal Profiles Drug Subs Excip 22:489 (1993)

>  <cas#>  (106) 
1156-19-0

>  <source>  (106) 
synthetic; U-17835

>  <status>  (106) 
USP, INN, BAN, JAN

>  <tradename>  (106) 
TOLINASE

>  <SMILES>  (106) 
Cc1ccc(S(=O)(=O)NC(=O)NN2CCCCCC2)cc1

>  <standardized_failed>  (106) 
False

$$$$

     RDKit          2D

 21 24  0  0  0  0  0  0  0  0999 V2000
    6.6167   -1.8417    0.0000 C   0  0  0  0  0  0  0  0  0  0  0  0
    5.2917   -1.6917    0.0000 C   0  0  0  0  0  0  0  0  0  0  0  0
    5.6167   -0.9542    0.0000 O   0  0  0  0  0  0  0  0  0  0  0  0
    5.9042   -2.2542    0.0000 C   0  0  0  0  0  0  0  0  0  0  0  0
    6.4417   -1.0292    0.0000 C   0  0  0  0  0  0  0  0  0  0  0  0
    5.7875   -3.0750    0.0000 C   0  0  0  0  0  0  0  0  0  0  0  0
    7.4042   -2.0917    0.0000 C   0  0  0  0  0  0  0  0  0  0  0  0
    7.1667   -3.6042    0.0000 N   0  0  0  0  0  0  0  0  0  0  0  0
    6.6292   -2.6292    0.0000 C   0  0  0  0  0  0  0  0  0  0  0  0
    7.0542   -0.4792    0.0000 C   0  0  0  0  0  0  0  0  0  0  0  0
    6.3542   -3.6667    0.0000 C   0  0  0  0  0  0  0  0  0  0  0  0
    4.5125   -1.9500    0.0000 C   0  0  0  0  0  0  0  0  0  0  0  0
    8.0167   -1.5417    0.0000 C   0  0  0  0  0  0  0  0  0  0  0  0
    5.0167   -3.3792    0.0000 C   0  0  0  0  0  0  0  0  0  0  0  0
    4.3292   -2.7500    0.0000 C   0  0  0  0  0  0  0  0  0  0  0  0
    7.3792   -2.8417    0.0000 C   0  0  0  0  0  0  0  0  0  0  0  0
    7.8417   -0.7292    0.0000 C   0  0  0  0  0  0  0  0  0  0  0  0
    3.9042   -1.3792    0.0000 O   0  0  0  0  0  0  0  0  0  0  0  0
    8.4500   -0.1750    0.0000 O   0  0  0  0  0  0  0  0  0  0  0  0
    7.8417   -4.1000    0.0000 C   0  0  0  0  0  0  0  0  0  0  0  0
    3.1250   -1.6167    0.0000 C   0  0  0  0  0  0  0  0  0  0  0  0
  2  4  2  0
  5  3  1  0
  4  1  1  0
  5  1  1  0
  6  4  1  0
  1  7  1  0
  8 16  1  0
  1  9  1  6
  5 10  1  1
 11  6  1  0
 12  2  1  0
 13  7  2  0
 14  6  2  0
 15 14  1  0
 16  9  1  0
 17 13  1  0
 18 12  1  0
 17 19  1  1
 20  8  1  0
 21 18  1  0
  2  3  1  0
 17 10  1  0
  8 11  1  0
 12 15  2  0
M  END
>  <ID>  (107) 


>  <MOLENAME>  (107) 
GALANTAMINE

>  <therap>  (107) 
anticholinesterase, analgesic, antiAlzheimer

>  <ref>  (107) 
J. Clin. Psychiatry (2000), 61(10), 710-1; Int. J. Neuropharmacol. (1968), 7(1), 7-14; Br. J. Anaesth. (1967), 39(12), 963-8

>  <cas#>  (107) 
357-70-0, 1953-04-4 [hydrobromide]

>  <source>  (107) 
Galanthus, Narcissus and other Lillaceae

>  <status>  (107) 
USAN

>  <tradename>  (107) 
REMINYL

>  <SMILES>  (107) 
COc1ccc2CN(C)CC[C@@]34C=C[C@H](O)C[C@@H]3Oc1c24

>  <standardized_failed>  (107) 
False

$$$$

     RDKit          2D

 11 10  0  0  0  0  0  0  0  0999 V2000
    3.2292   -3.4875    0.0000 C   0  0  0  0  0  0  0  0  0  0  0  0
    2.5167   -3.9000    0.0000 C   0  0  0  0  0  0  0  0  0  0  0  0
    3.9417   -3.9000    0.0000 C   0  0  0  0  0  0  0  0  0  0  0  0
    1.8042   -3.4875    0.0000 C   0  0  0  0  0  0  0  0  0  0  0  0
    4.6542   -3.4875    0.0000 C   0  0  0  0  0  0  0  0  0  0  0  0
    5.3667   -3.9000    0.0000 O   0  0  0  0  0  0  0  0  0  0  0  0
    1.8042   -2.6625    0.0000 O   0  0  0  0  0  0  0  0  0  0  0  0
    2.6417   -2.9000    0.0000 O   0  0  0  0  0  0  0  0  0  0  0  0
    4.6542   -2.6625    0.0000 O   0  0  0  0  0  0  0  0  0  0  0  0
    1.0917   -3.9000    0.0000 O   0  0  0  0  0  0  0  0  0  0  0  0
    3.8125   -2.9000    0.0000 C   0  0  0  0  0  0  0  0  0  0  0  0
  2  1  1  0
  3  1  1  0
  4  2  1  0
  5  3  1  0
  6  5  2  0
  7  4  2  0
  8  1  1  0
  9  5  1  0
 10  4  1  0
 11  1  1  0
M  END
>  <ID>  (108) 


>  <MOLENAME>  (108) 
MEGLUTOL

>  <therap>  (108) 
antihyperlipoproteinemia

>  <ref>  (108) 
J. Am. Chem. Soc. (1956), 78, 4498-9; Scand. J. Gastroenterol. (1984), 19(6), 820-3; Experientia (1968), 24(8), 791-2

>  <cas#>  (108) 
503-49-1

>  <source>  (108) 
synthesis; CB-337

>  <status>  (108) 
USAN, INN

>  <tradename>  (108) 
nan

>  <SMILES>  (108) 
CC(O)(CC(=O)O)CC(=O)O

>  <standardized_failed>  (108) 
False

$$$$

     RDKit          2D

 41 44  0  0  0  0  0  0  0  0999 V2000
    3.2917   -5.7667    0.0000 C   0  0  0  0  0  0  0  0  0  0  0  0
    1.8625   -5.7500    0.0000 C   0  0  0  0  0  0  0  0  0  0  0  0
    3.3000   -4.9417    0.0000 C   0  0  0  0  0  0  0  0  0  0  0  0
    2.5708   -6.1708    0.0000 C   0  0  0  0  0  0  0  0  0  0  0  0
    1.1500   -6.1625    0.0000 C   0  0  0  0  0  0  0  0  0  0  0  0
   13.2625   -7.4042    0.0000 C   0  0  0  0  0  0  0  0  0  0  0  0
    1.1458   -6.9875    0.0000 C   0  0  0  0  0  0  0  0  0  0  0  0
    2.5750   -6.9917    0.0000 C   0  0  0  0  0  0  0  0  0  0  0  0
   12.5500   -6.9917    0.0000 C   0  0  0  0  0  0  0  0  0  0  0  0
    1.8583   -7.4000    0.0000 C   0  0  0  0  0  0  0  0  0  0  0  0
    2.5917   -4.5208    0.0000 C   0  0  0  0  0  0  0  0  0  0  0  0
    1.8667   -4.9250    0.0000 C   0  0  0  0  0  0  0  0  0  0  0  0
    4.0708   -6.0250    0.0000 C   0  0  0  0  0  0  0  0  0  0  0  0
    0.4375   -5.7417    0.0000 C   0  0  0  0  0  0  0  0  0  0  0  0
    4.0833   -4.6958    0.0000 C   0  0  0  0  0  0  0  0  0  0  0  0
    9.7000   -6.9917    0.0000 S   0  0  0  0  0  0  0  0  0  0  0  0
    0.4375   -7.3917    0.0000 C   0  0  0  0  0  0  0  0  0  0  0  0
    4.5583   -5.3667    0.0000 C   0  0  0  0  0  0  0  0  0  0  0  0
    9.6958   -6.1667    0.0000 O   0  0  0  0  0  0  0  0  0  0  0  0
   13.9750   -6.9917    0.0000 F   0  0  0  0  0  0  0  0  0  0  0  0
   13.2583   -8.2292    0.0000 F   0  0  0  0  0  0  0  0  0  0  0  0
   13.9750   -7.8167    0.0000 F   0  0  0  0  0  0  0  0  0  0  0  0
   13.1292   -6.4042    0.0000 F   0  0  0  0  0  0  0  0  0  0  0  0
   11.9625   -6.4042    0.0000 F   0  0  0  0  0  0  0  0  0  0  0  0
   -0.2708   -6.9875    0.0000 C   0  0  0  0  0  0  0  0  0  0  0  0
   -0.2708   -6.1625    0.0000 C   0  0  0  0  0  0  0  0  0  0  0  0
    3.2917   -4.1167    0.0000 C   0  0  0  0  0  0  0  0  0  0  0  0
    4.3458   -3.9167    0.0000 O   0  0  0  0  0  0  0  0  0  0  0  0
   11.8375   -7.4042    0.0000 C   0  0  0  0  0  0  0  0  0  0  0  0
    3.2875   -7.4083    0.0000 C   0  0  0  0  0  0  0  0  0  0  0  0
   -0.9875   -7.4000    0.0000 O   0  0  0  0  0  0  0  0  0  0  0  0
   10.4125   -7.4042    0.0000 C   0  0  0  0  0  0  0  0  0  0  0  0
   11.1250   -6.9917    0.0000 C   0  0  0  0  0  0  0  0  0  0  0  0
    8.9875   -7.4042    0.0000 C   0  0  0  0  0  0  0  0  0  0  0  0
    4.0000   -6.9917    0.0000 C   0  0  0  0  0  0  0  0  0  0  0  0
    8.2750   -6.9917    0.0000 C   0  0  0  0  0  0  0  0  0  0  0  0
    6.1375   -7.4042    0.0000 C   0  0  0  0  0  0  0  0  0  0  0  0
    6.8500   -6.9917    0.0000 C   0  0  0  0  0  0  0  0  0  0  0  0
    7.5625   -7.4042    0.0000 C   0  0  0  0  0  0  0  0  0  0  0  0
    4.7125   -7.4042    0.0000 C   0  0  0  0  0  0  0  0  0  0  0  0
    5.4250   -6.9917    0.0000 C   0  0  0  0  0  0  0  0  0  0  0  0
  2  4  1  0
  3  1  1  0
  4  1  1  0
  5  2  1  0
  6  9  1  0
  7  5  2  0
  8  4  1  0
  9 29  1  0
 10  8  1  0
 11  3  1  0
 12 11  1  0
 13  1  1  0
 14  5  1  0
 15  3  1  0
 16 34  1  0
 17  7  1  0
 18 13  1  0
 19 16  2  0
 20  6  1  0
 21  6  1  0
 22  6  1  0
 23  9  1  0
 24  9  1  0
 25 17  2  0
 26 14  2  0
  3 27  1  1
 15 28  1  1
 29 33  1  0
  8 30  1  6
 31 25  1  0
 32 16  1  0
 33 32  1  0
 34 36  1  0
 35 30  1  0
 36 39  1  0
 37 41  1  0
 38 37  1  0
 39 38  1  0
 40 35  1  0
 41 40  1  0
 15 18  1  0
 12  2  1  0
 10  7  1  0
 25 26  1  0
M  END
>  <ID>  (109) 


>  <MOLENAME>  (109) 
FULVESTRANT

>  <therap>  (109) 
antiestrogen

>  <ref>  (109) 
Drugs (2011), 71(3), 363-380; Int. J. Cancer (1994), 56(2), 295-300; Cancer Res. (1991), 51(15), 3867-73

>  <cas#>  (109) 
129453-61-8

>  <source>  (109) 
synthetic; ICI-182780, ZD-9238

>  <status>  (109) 
USAN, INN, BAN

>  <tradename>  (109) 
FASLODEX

>  <SMILES>  (109) 
C[C@]12CCC3c4ccc(O)cc4C[C@@H](CCCCCCCCC[S+]([O-])CCCC(F)(F)C(F)(F)F)C3C1CC[C@@H]2O

>  <standardized_failed>  (109) 
False

$$$$

     RDKit          2D

 19 20  0  0  0  0  0  0  0  0999 V2000
    3.6292   -1.4250    0.0000 C   0  0  0  0  0  0  0  0  0  0  0  0
    4.3500   -1.8292    0.0000 C   0  0  0  0  0  0  0  0  0  0  0  0
    7.2000   -1.8125    0.0000 C   0  0  0  0  0  0  0  0  0  0  0  0
    5.7667   -1.8167    0.0000 C   0  0  0  0  0  0  0  0  0  0  0  0
    5.0542   -1.4167    0.0000 C   0  0  0  0  0  0  0  0  0  0  0  0
    6.4792   -1.4042    0.0000 C   0  0  0  0  0  0  0  0  0  0  0  0
    3.6292   -0.6000    0.0000 O   0  0  0  0  0  0  0  0  0  0  0  0
    7.2042   -2.6375    0.0000 O   0  0  0  0  0  0  0  0  0  0  0  0
    2.9167   -1.8417    0.0000 C   0  0  0  0  0  0  0  0  0  0  0  0
    7.9125   -1.3917    0.0000 O   0  0  0  0  0  0  0  0  0  0  0  0
    4.3500   -2.6542    0.0000 C   0  0  0  0  0  0  0  0  0  0  0  0
    5.7792   -2.6500    0.0000 C   0  0  0  0  0  0  0  0  0  0  0  0
    5.0625   -3.0667    0.0000 C   0  0  0  0  0  0  0  0  0  0  0  0
    6.4750   -0.5792    0.0000 C   0  0  0  0  0  0  0  0  0  0  0  0
    2.2042   -1.4292    0.0000 C   0  0  0  0  0  0  0  0  0  0  0  0
    2.9167   -2.6667    0.0000 C   0  0  0  0  0  0  0  0  0  0  0  0
    1.4917   -1.8417    0.0000 C   0  0  0  0  0  0  0  0  0  0  0  0
    2.2042   -3.0792    0.0000 C   0  0  0  0  0  0  0  0  0  0  0  0
    1.4917   -2.6667    0.0000 C   0  0  0  0  0  0  0  0  0  0  0  0
  2  1  1  0
  3  6  1  0
  4  5  2  0
  5  2  1  0
  6  4  1  0
  7  1  2  0
  8  3  2  0
  9  1  1  0
 10  3  1  0
 11  2  2  0
 12 13  2  0
 13 11  1  0
 14  6  1  0
 15  9  2  0
 16  9  1  0
 17 15  1  0
 18 16  2  0
 19 18  1  0
 17 19  2  0
 12  4  1  0
M  END
>  <ID>  (110) 


>  <MOLENAME>  (110) 
KETOPROFEN

>  <therap>  (110) 
antiinflammatory

>  <ref>  (110) 
Drugs (1996), 52(Suppl. 5), 24-46; Eur. J. Med. Chem. (1974), 9(4), 381-9; Drugs (1974), 8(3), 168-75

>  <cas#>  (110) 
22071-15-4

>  <source>  (110) 
synthetic; RP-19583

>  <status>  (110) 
USP, INN, BAN, JAN

>  <tradename>  (110) 
ACTRON

>  <SMILES>  (110) 
CC(C(=O)O)c1cc(C(=O)c2ccccc2)ccc1

>  <standardized_failed>  (110) 
False

$$$$

     RDKit          2D

 29 30  0  0  0  0  0  0  0  0999 V2000
    5.5375   -4.3625    0.0000 N   0  0  0  0  0  0  0  0  0  0  0  0
    5.5292   -3.5375    0.0000 C   0  0  0  0  0  0  0  0  0  0  0  0
    4.8750   -4.8500    0.0000 C   0  0  0  0  0  0  0  0  0  0  0  0
    6.2417   -2.2917    0.0000 N   0  0  0  0  0  0  0  0  0  0  0  0
    6.2417   -3.1167    0.0000 C   0  0  0  0  0  0  0  0  0  0  0  0
    4.0875   -4.5917    0.0000 C   0  0  0  0  0  0  0  0  0  0  0  0
    5.5250   -1.0625    0.0000 C   0  0  0  0  0  0  0  0  0  0  0  0
    5.5292   -1.8875    0.0000 C   0  0  0  0  0  0  0  0  0  0  0  0
    4.8167   -3.1250    0.0000 O   0  0  0  0  0  0  0  0  0  0  0  0
    3.9125   -3.7917    0.0000 O   0  0  0  0  0  0  0  0  0  0  0  0
    4.8042   -0.6500    0.0000 O   0  0  0  0  0  0  0  0  0  0  0  0
    4.8167   -2.3000    0.0000 C   0  0  0  0  0  0  0  0  0  0  0  0
    6.2042   -4.8417    0.0000 C   0  0  0  0  0  0  0  0  0  0  0  0
    3.4792   -5.1500    0.0000 O   0  0  0  0  0  0  0  0  0  0  0  0
    6.2375   -0.6417    0.0000 O   0  0  0  0  0  0  0  0  0  0  0  0
    4.1000   -1.8917    0.0000 C   0  0  0  0  0  0  0  0  0  0  0  0
    9.8167   -3.5167    0.0000 N   0  0  0  0  0  0  0  0  0  0  0  0
    5.1292   -5.6292    0.0000 C   0  0  0  0  0  0  0  0  0  0  0  0
    3.3875   -2.3042    0.0000 C   0  0  0  0  0  0  0  0  0  0  0  0
    5.9542   -5.6292    0.0000 C   0  0  0  0  0  0  0  0  0  0  0  0
    6.9625   -3.5292    0.0000 C   0  0  0  0  0  0  0  0  0  0  0  0
    9.1042   -3.1042    0.0000 C   0  0  0  0  0  0  0  0  0  0  0  0
    2.6667   -1.8917    0.0000 C   0  0  0  0  0  0  0  0  0  0  0  0
    3.3875   -3.1375    0.0000 C   0  0  0  0  0  0  0  0  0  0  0  0
    7.6750   -3.1167    0.0000 C   0  0  0  0  0  0  0  0  0  0  0  0
    8.3917   -3.5250    0.0000 C   0  0  0  0  0  0  0  0  0  0  0  0
    1.9542   -2.3125    0.0000 C   0  0  0  0  0  0  0  0  0  0  0  0
    2.6667   -3.5500    0.0000 C   0  0  0  0  0  0  0  0  0  0  0  0
    1.9542   -3.1375    0.0000 C   0  0  0  0  0  0  0  0  0  0  0  0
  2  1  1  0
  3  1  1  0
  4  5  1  0
  5  2  1  0
  3  6  1  1
  8  7  1  0
  8  4  1  0
  9  2  2  0
 10  6  2  0
 11  7  2  0
  8 12  1  1
 13  1  1  0
 14  6  1  0
 15  7  1  0
 16 12  1  0
 17 22  1  0
 18  3  1  0
 19 16  1  0
 20 13  1  0
  5 21  1  1
 22 26  1  0
 23 19  2  0
 24 19  1  0
 25 21  1  0
 26 25  1  0
 27 23  1  0
 28 24  2  0
 29 28  1  0
 20 18  1  0
 29 27  2  0
M  END
>  <ID>  (111) 


>  <MOLENAME>  (111) 
LISINOPRIL

>  <therap>  (111) 
ACE inhibitor

>  <ref>  (111) 
J. Pharm. Sci. (1985), 74(3), 352-4; Spec. Publ. - R. Soc. Chem. (1984), (50), 36-46; Am. J. Cardiol. (1984), 53(1), 116-9

>  <cas#>  (111) 
83915-83-7, 76547-98-3 [anhydrous]

>  <source>  (111) 
synthetic

>  <status>  (111) 
USP, INN, BAN, JAN

>  <tradename>  (111) 
ZESTRIL

>  <SMILES>  (111) 
NCCCC[C@H](N[C@@H](CCc1ccccc1)C(=O)O)C(=O)N1CCC[C@H]1C(=O)O

>  <standardized_failed>  (111) 
False

$$$$

     RDKit          2D

 51 53  0  0  0  0  0  0  0  0999 V2000
    1.6958   -3.8292    0.0000 N   0  0  0  0  0  0  0  0  0  0  0  0
    2.3417   -3.3125    0.0000 C   0  0  0  0  0  0  0  0  0  0  0  0
    2.0375   -2.5417    0.0000 N   0  0  0  0  0  0  0  0  0  0  0  0
    7.4750   -3.2125    0.0000 N   0  0  0  0  0  0  0  0  0  0  0  0
    5.0917   -6.0542    0.0000 S   0  0  0  0  0  0  0  0  0  0  0  0
   -1.3708   -4.0375    0.0000 N   0  0  0  0  0  0  0  0  0  0  0  0
    1.0042   -3.3833    0.0000 C   0  0  0  0  0  0  0  0  0  0  0  0
   -1.1583   -3.2417    0.0000 C   0  0  0  0  0  0  0  0  0  0  0  0
    1.2167   -2.5917    0.0000 C   0  0  0  0  0  0  0  0  0  0  0  0
    6.8917   -3.7917    0.0000 C   0  0  0  0  0  0  0  0  0  0  0  0
    8.2667   -3.4250    0.0000 C   0  0  0  0  0  0  0  0  0  0  0  0
   -0.3625   -3.0208    0.0000 C   0  0  0  0  0  0  0  0  0  0  0  0
   -0.7125   -4.5417    0.0000 C   0  0  0  0  0  0  0  0  0  0  0  0
    0.2167   -3.5958    0.0000 C   0  0  0  0  0  0  0  0  0  0  0  0
   -2.0833   -4.4458    0.0000 C   0  0  0  0  0  0  0  0  0  0  0  0
   -2.7958   -4.0375    0.0000 C   0  0  0  0  0  0  0  0  0  0  0  0
    0.6375   -2.0125    0.0000 C   0  0  0  0  0  0  0  0  0  0  0  0
   -3.5083   -4.4458    0.0000 C   0  0  0  0  0  0  0  0  0  0  0  0
    6.0958   -3.5792    0.0000 C   0  0  0  0  0  0  0  0  0  0  0  0
    5.8042   -5.6417    0.0000 O   0  0  0  0  0  0  0  0  0  0  0  0
    4.3750   -5.6417    0.0000 O   0  0  0  0  0  0  0  0  0  0  0  0
    3.1375   -3.5250    0.0000 C   0  0  0  0  0  0  0  0  0  0  0  0
   -0.8250   -5.3583    0.0000 N   0  0  0  0  0  0  0  0  0  0  0  0
   -1.7458   -2.6583    0.0000 O   0  0  0  0  0  0  0  0  0  0  0  0
   -0.1542   -2.2250    0.0000 C   0  0  0  0  0  0  0  0  0  0  0  0
    8.4792   -4.2208    0.0000 O   0  0  0  0  0  0  0  0  0  0  0  0
    3.7167   -2.9417    0.0000 N   0  0  0  0  0  0  0  0  0  0  0  0
    4.6750   -6.7667    0.0000 O   0  0  0  0  0  0  0  0  0  0  0  0
   -3.5083   -5.2750    0.0000 O   0  0  0  0  0  0  0  0  0  0  0  0
    7.1000   -4.5875    0.0000 N   0  0  0  0  0  0  0  0  0  0  0  0
    5.5125   -4.1542    0.0000 C   0  0  0  0  0  0  0  0  0  0  0  0
    5.8875   -2.7875    0.0000 C   0  0  0  0  0  0  0  0  0  0  0  0
    4.5125   -3.1542    0.0000 C   0  0  0  0  0  0  0  0  0  0  0  0
    5.5000   -6.7667    0.0000 C   0  0  0  0  0  0  0  0  0  0  0  0
    8.8542   -2.8417    0.0000 O   0  0  0  0  0  0  0  0  0  0  0  0
    2.4875   -1.8500    0.0000 C   0  0  0  0  0  0  0  0  0  0  0  0
    5.0958   -2.5708    0.0000 C   0  0  0  0  0  0  0  0  0  0  0  0
    4.7250   -3.9417    0.0000 C   0  0  0  0  0  0  0  0  0  0  0  0
   -4.2208   -4.0375    0.0000 O   0  0  0  0  0  0  0  0  0  0  0  0
    0.0417   -4.2250    0.0000 C   0  0  0  0  0  0  0  0  0  0  0  0
   -0.1708   -5.8583    0.0000 C   0  0  0  0  0  0  0  0  0  0  0  0
    9.6500   -3.0542    0.0000 C   0  0  0  0  0  0  0  0  0  0  0  0
   -4.9333   -4.4458    0.0000 C   0  0  0  0  0  0  0  0  0  0  0  0
   10.2292   -2.4792    0.0000 C   0  0  0  0  0  0  0  0  0  0  0  0
   12.4042   -2.3250    0.0000 C   0  0  0  0  0  0  0  0  0  0  0  0
   11.6125   -2.1125    0.0000 C   0  0  0  0  0  0  0  0  0  0  0  0
   11.0292   -2.6917    0.0000 C   0  0  0  0  0  0  0  0  0  0  0  0
   -5.6500   -4.0375    0.0000 C   0  0  0  0  0  0  0  0  0  0  0  0
    0.6958   -4.7208    0.0000 C   0  0  0  0  0  0  0  0  0  0  0  0
    0.5917   -5.5417    0.0000 C   0  0  0  0  0  0  0  0  0  0  0  0
   12.9917   -1.7417    0.0000 C   0  0  0  0  0  0  0  0  0  0  0  0
  2  1  2  0
  3  2  1  0
  4 10  2  0
  6  8  1  0
  7  1  1  0
  8 12  1  0
  9  7  2  0
 10 19  1  0
 11  4  1  0
 12 14  2  0
 13  6  1  0
 14  7  1  0
 15  6  1  0
 16 15  1  0
 17  9  1  0
 18 16  1  0
 19 31  2  0
 20  5  2  0
 21  5  2  0
 22  2  1  0
 23 13  2  0
 24  8  2  0
 25 17  2  0
 26 11  2  0
 27 22  1  0
 28  5  1  0
 29 18  2  0
 30 10  1  0
 31 38  1  0
 32 37  2  0
 33 27  1  0
 34  5  1  0
 35 11  1  0
 36  3  1  0
 37 33  1  0
 38 33  2  0
 39 18  1  0
 40 13  1  0
 41 23  1  0
 42 35  1  0
 43 39  1  0
 44 42  1  0
 45 46  1  0
 46 47  1  0
 47 44  1  0
 48 43  1  0
 49 40  2  0
 50 49  1  0
 51 45  1  0
  9  3  1  0
 12 25  1  0
 32 19  1  0
 50 41  2  0
M  END
>  <ID>  (112) 


>  <MOLENAME>  (112) 
DABIGATRAN ETEXILATE MESYLATE

>  <therap>  (112) 
antithrombotic, serine protease inhibitor

>  <ref>  (112) 
J Med Chem 45:1757 (2002); J Thromb Haemost 2:1573 (2004); J Clin Pharmacol 45:555 (2005)

>  <cas#>  (112) 
593282-20-3

>  <source>  (112) 
synthetic; BIBR-1048

>  <status>  (112) 
USAN

>  <tradename>  (112) 
PRADAXA

>  <SMILES>  (112) 
CCCCCCOC(=O)/N=C(\N)c1ccc(NCc2nc3c(ccc(C(=O)N(CCC(=O)OCC)c4ncccc4)c3)n2C)cc1

>  <standardized_failed>  (112) 
False

$$$$

     RDKit          2D

 27 29  0  0  0  0  0  0  0  0999 V2000
    4.6542   -3.4875    0.0000 N   0  0  0  0  0  0  0  0  0  0  0  0
    4.9042   -4.2750    0.0000 C   0  0  0  0  0  0  0  0  0  0  0  0
    5.3167   -3.0042    0.0000 N   0  0  0  0  0  0  0  0  0  0  0  0
    5.7292   -4.2750    0.0000 C   0  0  0  0  0  0  0  0  0  0  0  0
    5.9875   -3.4875    0.0000 C   0  0  0  0  0  0  0  0  0  0  0  0
    8.1250   -3.0750    0.0000 C   0  0  0  0  0  0  0  0  0  0  0  0
    3.8708   -3.2333    0.0000 C   0  0  0  0  0  0  0  0  0  0  0  0
    4.4208   -4.9417    0.0000 C   0  0  0  0  0  0  0  0  0  0  0  0
    8.8375   -3.4833    0.0000 N   0  0  0  0  0  0  0  0  0  0  0  0
    8.1208   -2.2500    0.0000 O   0  0  0  0  0  0  0  0  0  0  0  0
    7.4125   -3.4875    0.0000 C   0  0  0  0  0  0  0  0  0  0  0  0
    3.2625   -3.7875    0.0000 C   0  0  0  0  0  0  0  0  0  0  0  0
    3.7000   -2.4292    0.0000 C   0  0  0  0  0  0  0  0  0  0  0  0
    3.6000   -4.8500    0.0000 C   0  0  0  0  0  0  0  0  0  0  0  0
    4.7542   -5.6875    0.0000 C   0  0  0  0  0  0  0  0  0  0  0  0
    6.7000   -3.0750    0.0000 C   0  0  0  0  0  0  0  0  0  0  0  0
    3.4500   -6.2708    0.0000 C   0  0  0  0  0  0  0  0  0  0  0  0
    2.3042   -2.7250    0.0000 C   0  0  0  0  0  0  0  0  0  0  0  0
    9.5500   -3.0708    0.0000 O   0  0  0  0  0  0  0  0  0  0  0  0
    4.2750   -6.3542    0.0000 C   0  0  0  0  0  0  0  0  0  0  0  0
    3.1125   -5.5125    0.0000 C   0  0  0  0  0  0  0  0  0  0  0  0
    2.4792   -3.5375    0.0000 C   0  0  0  0  0  0  0  0  0  0  0  0
    2.9167   -2.1750    0.0000 C   0  0  0  0  0  0  0  0  0  0  0  0
    2.9625   -6.9375    0.0000 Cl  0  0  0  0  0  0  0  0  0  0  0  0
    1.5167   -2.4750    0.0000 O   0  0  0  0  0  0  0  0  0  0  0  0
    8.8375   -4.3083    0.0000 C   0  0  0  0  0  0  0  0  0  0  0  0
    1.3458   -1.6667    0.0000 C   0  0  0  0  0  0  0  0  0  0  0  0
  2  1  1  0
  3  1  1  0
  4  2  2  0
  5  3  2  0
  6 11  1  0
  7  1  1  0
  8  2  1  0
  9  6  1  0
 10  6  2  0
 11 16  1  0
 12  7  2  0
 13  7  1  0
 14  8  2  0
 15  8  1  0
 16  5  1  0
 17 20  1  0
 18 22  2  0
 19  9  1  0
 20 15  2  0
 21 14  1  0
 22 12  1  0
 23 13  2  0
 24 17  1  0
 25 18  1  0
 26  9  1  0
 27 25  1  0
  5  4  1  0
 18 23  1  0
 17 21  2  0
M  END
>  <ID>  (113) 


>  <MOLENAME>  (113) 
TEPOXALIN

>  <therap>  (113) 
antipsoratic

>  <ref>  (113) 
Fundamental Appl Toxicol 33:38 (1996); Am J Vet Res 66:966 (2005)

>  <cas#>  (113) 
103475-41-8

>  <source>  (113) 
synthetic; ORF-20485, RWJ-20485

>  <status>  (113) 
USAN, INN

>  <tradename>  (113) 
ZUBRIN

>  <SMILES>  (113) 
COc1ccc(-n2nc(CCC(=O)N(C)O)cc2-c2ccc(Cl)cc2)cc1

>  <standardized_failed>  (113) 
False

$$$$

     RDKit          2D

 32 34  0  0  0  0  0  0  0  0999 V2000
   -0.5583   -3.6292    0.0000 N   0  0  0  0  0  0  0  0  0  0  0  0
    0.8667   -3.6375    0.0000 C   0  0  0  0  0  0  0  0  0  0  0  0
    0.1625   -2.4042    0.0000 N   0  0  0  0  0  0  0  0  0  0  0  0
    0.1542   -4.0500    0.0000 C   0  0  0  0  0  0  0  0  0  0  0  0
    0.8667   -2.8167    0.0000 C   0  0  0  0  0  0  0  0  0  0  0  0
   -0.5500   -2.8042    0.0000 C   0  0  0  0  0  0  0  0  0  0  0  0
    1.5792   -4.0500    0.0000 N   0  0  0  0  0  0  0  0  0  0  0  0
    6.5792   -5.2792    0.0000 C   0  0  0  0  0  0  0  0  0  0  0  0
    1.5792   -2.3917    0.0000 N   0  0  0  0  0  0  0  0  0  0  0  0
    6.5792   -6.1042    0.0000 N   0  0  0  0  0  0  0  0  0  0  0  0
    8.0125   -6.1000    0.0000 C   0  0  0  0  0  0  0  0  0  0  0  0
    7.3000   -6.5125    0.0000 C   0  0  0  0  0  0  0  0  0  0  0  0
    5.8667   -4.8667    0.0000 C   0  0  0  0  0  0  0  0  0  0  0  0
    2.2917   -3.6375    0.0000 C   0  0  0  0  0  0  0  0  0  0  0  0
    0.1542   -4.8750    0.0000 O   0  0  0  0  0  0  0  0  0  0  0  0
    6.5917   -8.5792    0.0000 C   0  0  0  0  0  0  0  0  0  0  0  0
    7.2917   -4.8625    0.0000 O   0  0  0  0  0  0  0  0  0  0  0  0
    8.0125   -5.2750    0.0000 O   0  0  0  0  0  0  0  0  0  0  0  0
   -1.2708   -2.3917    0.0000 N   0  0  0  0  0  0  0  0  0  0  0  0
    3.7250   -3.6292    0.0000 N   0  0  0  0  0  0  0  0  0  0  0  0
    7.3042   -8.9875    0.0000 O   0  0  0  0  0  0  0  0  0  0  0  0
    2.2917   -2.8042    0.0000 C   0  0  0  0  0  0  0  0  0  0  0  0
    7.3042   -7.3375    0.0000 C   0  0  0  0  0  0  0  0  0  0  0  0
    5.8625   -4.0375    0.0000 C   0  0  0  0  0  0  0  0  0  0  0  0
    5.1542   -5.2792    0.0000 C   0  0  0  0  0  0  0  0  0  0  0  0
    3.0125   -4.0500    0.0000 C   0  0  0  0  0  0  0  0  0  0  0  0
    4.4417   -4.0417    0.0000 C   0  0  0  0  0  0  0  0  0  0  0  0
    6.5917   -7.7542    0.0000 C   0  0  0  0  0  0  0  0  0  0  0  0
    8.7292   -6.5042    0.0000 O   0  0  0  0  0  0  0  0  0  0  0  0
    5.8792   -8.9917    0.0000 O   0  0  0  0  0  0  0  0  0  0  0  0
    4.4375   -4.8667    0.0000 C   0  0  0  0  0  0  0  0  0  0  0  0
    5.1500   -3.6292    0.0000 C   0  0  0  0  0  0  0  0  0  0  0  0
  2  4  1  0
  3  6  1  0
  4  1  1  0
  5  3  1  0
  6  1  2  0
  7  2  2  0
  8 13  1  0
  9  5  2  0
 10  8  1  0
 12 11  1  0
 12 10  1  0
 13 24  2  0
 14  7  1  0
 15  4  2  0
 16 28  1  0
 17  8  2  0
 18 11  2  0
 19  6  1  0
 20 26  1  0
 21 16  2  0
 22  9  1  0
 12 23  1  6
 24 32  1  0
 25 31  2  0
 26 14  1  0
 27 20  1  0
 28 23  1  0
 29 11  1  0
 30 16  1  0
 31 27  1  0
 32 27  2  0
  5  2  1  0
 22 14  2  0
 13 25  1  0
M  END
>  <ID>  (114) 


>  <MOLENAME>  (114) 
FOLIC ACID

>  <therap>  (114) 
hematopoietic vitamin

>  <ref>  (114) 
Am. J. Clin. Nutr. (1979), 32(2), 368-417; Chemotherapy (1973), 19(3), 179-95; Semin. Hematol. (1970), 7(1), 23-39

>  <cas#>  (114) 
59-30-3

>  <source>  (114) 
liver, kidney, green plants and fungi

>  <status>  (114) 
USP, INN, BAN, JAN

>  <tradename>  (114) 
FOLICET

>  <SMILES>  (114) 
Nc1nc(=O)c2nc(CNc3ccc(C(=O)N[C@@H](CCC(=O)O)C(=O)O)cc3)cnc2[nH]1

>  <standardized_failed>  (114) 
False

$$$$

     RDKit          2D

 27 29  0  0  0  0  0  0  0  0999 V2000
    7.1917   -4.0542    0.0000 S   0  0  0  0  0  0  0  0  0  0  0  0
    7.9042   -4.4667    0.0000 N   0  0  0  0  0  0  0  0  0  0  0  0
    7.9000   -5.2917    0.0000 C   0  0  0  0  0  0  0  0  0  0  0  0
    3.6375   -2.8292    0.0000 C   0  0  0  0  0  0  0  0  0  0  0  0
    2.9167   -2.4167    0.0000 C   0  0  0  0  0  0  0  0  0  0  0  0
    7.2375   -5.7792    0.0000 N   0  0  0  0  0  0  0  0  0  0  0  0
    2.9167   -1.5917    0.0000 C   0  0  0  0  0  0  0  0  0  0  0  0
    3.6292   -1.1750    0.0000 C   0  0  0  0  0  0  0  0  0  0  0  0
    6.4750   -3.6417    0.0000 C   0  0  0  0  0  0  0  0  0  0  0  0
    4.3500   -2.4167    0.0000 N   0  0  0  0  0  0  0  0  0  0  0  0
    8.5667   -5.7792    0.0000 S   0  0  0  0  0  0  0  0  0  0  0  0
    7.6375   -3.4667    0.0000 O   0  0  0  0  0  0  0  0  0  0  0  0
    6.7292   -4.7167    0.0000 O   0  0  0  0  0  0  0  0  0  0  0  0
    7.4917   -6.5625    0.0000 C   0  0  0  0  0  0  0  0  0  0  0  0
    3.6375   -3.6542    0.0000 O   0  0  0  0  0  0  0  0  0  0  0  0
    8.3167   -6.5667    0.0000 C   0  0  0  0  0  0  0  0  0  0  0  0
    3.6292   -0.3500    0.0000 O   0  0  0  0  0  0  0  0  0  0  0  0
    6.4667   -2.8167    0.0000 C   0  0  0  0  0  0  0  0  0  0  0  0
    5.7667   -4.0542    0.0000 C   0  0  0  0  0  0  0  0  0  0  0  0
    5.0625   -2.8292    0.0000 C   0  0  0  0  0  0  0  0  0  0  0  0
    4.3500   -1.5792    0.0000 O   0  0  0  0  0  0  0  0  0  0  0  0
    5.7625   -2.4167    0.0000 C   0  0  0  0  0  0  0  0  0  0  0  0
    5.0542   -3.6417    0.0000 C   0  0  0  0  0  0  0  0  0  0  0  0
    2.2042   -2.8292    0.0000 C   0  0  0  0  0  0  0  0  0  0  0  0
    2.2042   -1.1792    0.0000 C   0  0  0  0  0  0  0  0  0  0  0  0
    1.4917   -2.4167    0.0000 C   0  0  0  0  0  0  0  0  0  0  0  0
    1.4917   -1.5917    0.0000 C   0  0  0  0  0  0  0  0  0  0  0  0
  2  1  1  0
  3  2  1  0
  4 10  1  0
  5  4  1  0
  6  3  2  0
  7  5  2  0
  8  7  1  0
  9  1  1  0
 10 20  1  0
 11  3  1  0
 12  1  2  0
 13  1  2  0
 14  6  1  0
 15  4  2  0
 16 11  1  0
 17  8  2  0
 18  9  2  0
 19  9  1  0
 20 23  1  0
 21  8  1  0
 22 18  1  0
 23 19  2  0
 24  5  1  0
 25  7  1  0
 26 24  2  0
 27 26  1  0
 22 20  2  0
 14 16  2  0
 25 27  2  0
M  END
>  <ID>  (115) 


>  <MOLENAME>  (115) 
PHTHALYLSULFATHIAZOLE

>  <therap>  (115) 
antibacterial

>  <ref>  (115) 
J Pharmacol Exp Therap 81:116 (1944)

>  <cas#>  (115) 
85-73-4

>  <source>  (115) 
synthetic

>  <status>  (115) 
USP-XX, INN, BAN

>  <tradename>  (115) 
ENDOTHALYL

>  <SMILES>  (115) 
O=C(O)c1c(C(=O)Nc2ccc(S(=O)(=O)Nc3nccs3)cc2)cccc1

>  <standardized_failed>  (115) 
False

$$$$

     RDKit          2D

 23 24  0  0  0  0  0  0  0  0999 V2000
    3.8750   -1.2292    0.0000 S   0  0  0  0  0  0  0  0  0  0  0  0
    3.2667   -0.6750    0.0000 N   0  0  0  0  0  0  0  0  0  0  0  0
    2.4792   -0.9292    0.0000 C   0  0  0  0  0  0  0  0  0  0  0  0
    2.2250   -1.7167    0.0000 N   0  0  0  0  0  0  0  0  0  0  0  0
    4.5875   -0.8125    0.0000 C   0  0  0  0  0  0  0  0  0  0  0  0
    1.8125   -0.4417    0.0000 S   0  0  0  0  0  0  0  0  0  0  0  0
    4.0875   -2.0250    0.0000 O   0  0  0  0  0  0  0  0  0  0  0  0
    3.1542   -1.6375    0.0000 O   0  0  0  0  0  0  0  0  0  0  0  0
    7.4292    0.0458    0.0000 C   0  0  0  0  0  0  0  0  0  0  0  0
    9.5667    0.4833    0.0000 C   0  0  0  0  0  0  0  0  0  0  0  0
    6.7125    0.4458    0.0000 N   0  0  0  0  0  0  0  0  0  0  0  0
    1.4000   -1.7167    0.0000 C   0  0  0  0  0  0  0  0  0  0  0  0
    1.1417   -0.9292    0.0000 C   0  0  0  0  0  0  0  0  0  0  0  0
    7.4417   -0.7792    0.0000 O   0  0  0  0  0  0  0  0  0  0  0  0
    9.5542    1.3083    0.0000 O   0  0  0  0  0  0  0  0  0  0  0  0
    4.5750    0.0083    0.0000 C   0  0  0  0  0  0  0  0  0  0  0  0
    5.3042   -1.2167    0.0000 C   0  0  0  0  0  0  0  0  0  0  0  0
    6.0000    0.0250    0.0000 C   0  0  0  0  0  0  0  0  0  0  0  0
    8.1417    0.4625    0.0000 C   0  0  0  0  0  0  0  0  0  0  0  0
    8.8542    0.0583    0.0000 C   0  0  0  0  0  0  0  0  0  0  0  0
   10.2875    0.0750    0.0000 O   0  0  0  0  0  0  0  0  0  0  0  0
    5.2792    0.4333    0.0000 C   0  0  0  0  0  0  0  0  0  0  0  0
    6.0042   -0.8000    0.0000 C   0  0  0  0  0  0  0  0  0  0  0  0
  2  1  1  0
  3  2  1  0
  4  3  2  0
  5  1  1  0
  6  3  1  0
  7  1  2  0
  8  1  2  0
  9 11  1  0
 10 20  1  0
 11 18  1  0
 12  4  1  0
 13  6  1  0
 14  9  2  0
 15 10  2  0
 16  5  2  0
 17  5  1  0
 18 23  1  0
 19  9  1  0
 20 19  1  0
 21 10  1  0
 22 16  1  0
 23 17  2  0
 18 22  2  0
 13 12  2  0
M  END
>  <ID>  (116) 


>  <MOLENAME>  (116) 
SUCCINYLSULFATHIAZOLE

>  <therap>  (116) 
antibacterial

>  <ref>  (116) 
J Pharmacol Exp Ther 75:231 (1942)

>  <cas#>  (116) 
116-43-8

>  <source>  (116) 
synthetic

>  <status>  (116) 
USP-XVIII, INN, BAN

>  <tradename>  (116) 
SULFASUXIDINE

>  <SMILES>  (116) 
O=C(O)CCC(=O)Nc1ccc(S(=O)(=O)Nc2nccs2)cc1

>  <standardized_failed>  (116) 
False

$$$$

     RDKit          2D

 11 11  0  0  0  0  0  0  0  0999 V2000
    8.6125  -10.8167    0.0000 C   0  0  0  0  0  0  0  0  0  0  0  0
    7.8000  -10.6417    0.0000 C   0  0  0  0  0  0  0  0  0  0  0  0
    9.1667  -10.2125    0.0000 O   0  0  0  0  0  0  0  0  0  0  0  0
    7.2417  -11.2542    0.0000 C   0  0  0  0  0  0  0  0  0  0  0  0
    7.5417   -9.8625    0.0000 C   0  0  0  0  0  0  0  0  0  0  0  0
    8.8667  -11.6042    0.0000 O   0  0  0  0  0  0  0  0  0  0  0  0
    6.7417   -9.6875    0.0000 C   0  0  0  0  0  0  0  0  0  0  0  0
    6.4417  -11.0792    0.0000 C   0  0  0  0  0  0  0  0  0  0  0  0
    5.1042   -9.3542    0.0000 N   0  0  0  0  0  0  0  0  0  0  0  0
    6.1875  -10.3000    0.0000 C   0  0  0  0  0  0  0  0  0  0  0  0
    5.3667  -10.1292    0.0000 C   0  0  0  0  0  0  0  0  0  0  0  0
  2  1  1  1
  3  1  2  0
  4  2  1  0
  5  2  1  0
  6  1  1  0
  7  5  1  0
  8  4  1  0
  9 11  1  0
 10  7  1  0
 10 11  1  6
 10  8  1  0
M  END
>  <ID>  (117) 


>  <MOLENAME>  (117) 
TRANEXAMIC ACID

>  <therap>  (117) 
hemostatic

>  <ref>  (117) 
N Engl J Med 308:1571 (1983); Drugs 57:1005 (1999)

>  <cas#>  (117) 
1197-18-8

>  <source>  (117) 
synthetic; CL-65366

>  <status>  (117) 
USAN, INN, BAN, JAN

>  <tradename>  (117) 
CYKLOKAPRON

>  <SMILES>  (117) 
NC[C@H]1CC[C@H](C(=O)O)CC1

>  <standardized_failed>  (117) 
False

$$$$

     RDKit          2D

 24 26  0  0  0  0  0  0  0  0999 V2000
    7.7000   -3.5042    0.0000 N   0  0  0  0  0  0  0  0  0  0  0  0
    6.8750   -3.5042    0.0000 C   0  0  0  0  0  0  0  0  0  0  0  0
    6.8750   -2.6792    0.0000 C   0  0  0  0  0  0  0  0  0  0  0  0
    7.7000   -2.6792    0.0000 C   0  0  0  0  0  0  0  0  0  0  0  0
    8.4042   -3.9167    0.0000 C   0  0  0  0  0  0  0  0  0  0  0  0
    6.2917   -2.0917    0.0000 N   0  0  0  0  0  0  0  0  0  0  0  0
    8.4042   -2.2667    0.0000 S   0  0  0  0  0  0  0  0  0  0  0  0
    5.4917   -2.3125    0.0000 C   0  0  0  0  0  0  0  0  0  0  0  0
    9.1167   -3.5042    0.0000 C   0  0  0  0  0  0  0  0  0  0  0  0
    8.4042   -4.7417    0.0000 C   0  0  0  0  0  0  0  0  0  0  0  0
    4.9042   -1.7292    0.0000 C   0  0  0  0  0  0  0  0  0  0  0  0
    9.1167   -2.6792    0.0000 C   0  0  0  0  0  0  0  0  0  0  0  0
    6.2875   -4.0875    0.0000 O   0  0  0  0  0  0  0  0  0  0  0  0
    5.2792   -3.1042    0.0000 O   0  0  0  0  0  0  0  0  0  0  0  0
    7.6917   -5.1542    0.0000 O   0  0  0  0  0  0  0  0  0  0  0  0
    4.1125   -1.9417    0.0000 C   0  0  0  0  0  0  0  0  0  0  0  0
    5.1250   -0.9292    0.0000 N   0  0  0  0  0  0  0  0  0  0  0  0
    9.1250   -5.1542    0.0000 O   0  0  0  0  0  0  0  0  0  0  0  0
    9.8375   -3.9167    0.0000 C   0  0  0  0  0  0  0  0  0  0  0  0
    3.5292   -1.3542    0.0000 C   0  0  0  0  0  0  0  0  0  0  0  0
    3.9042   -2.7292    0.0000 C   0  0  0  0  0  0  0  0  0  0  0  0
    3.1125   -2.9500    0.0000 C   0  0  0  0  0  0  0  0  0  0  0  0
    2.7375   -1.5667    0.0000 C   0  0  0  0  0  0  0  0  0  0  0  0
    2.5167   -2.3667    0.0000 C   0  0  0  0  0  0  0  0  0  0  0  0
  2  1  1  0
  3  4  1  0
  4  1  1  0
  5  1  1  0
  3  6  1  1
  4  7  1  1
  8  6  1  0
  9  5  2  0
 10  5  1  0
 11  8  1  0
 12  9  1  0
 13  2  2  0
 14  8  2  0
 15 10  2  0
 16 11  1  0
 17 11  1  0
 18 10  1  0
 19  9  1  0
 20 16  2  0
 21 16  1  0
 22 21  2  0
 23 20  1  0
 24 22  1  0
  3  2  1  0
  7 12  1  0
 23 24  2  0
M  END
>  <ID>  (118) 


>  <MOLENAME>  (118) 
CEPHALEXIN

>  <therap>  (118) 
antibacterial

>  <ref>  (118) 
Antimicrob Agents Chemother 1968:353, 361, 489; Post Grad Med J 59 Suppl 5:1 (1983)

>  <cas#>  (118) 
23325-78-2, 15686-71-2 [anhydrous]

>  <source>  (118) 
semisynthetic

>  <status>  (118) 
USP, INN, BAN, JAN

>  <tradename>  (118) 
KEFLEX

>  <SMILES>  (118) 
CC1=C(C(=O)O)N2C(=O)[C@@H](NC(=O)C(N)c3ccccc3)[C@H]2SC1

>  <standardized_failed>  (118) 
False

$$$$

     RDKit          2D

 19 21  0  0  0  0  0  0  0  0999 V2000
    0.8125   -1.8042    0.0000 C   0  0  0  0  0  0  0  0  0  0  0  0
    2.2417   -1.8042    0.0000 C   0  0  0  0  0  0  0  0  0  0  0  0
    1.5292   -1.3917    0.0000 C   0  0  0  0  0  0  0  0  0  0  0  0
    2.2375   -2.6375    0.0000 C   0  0  0  0  0  0  0  0  0  0  0  0
    0.8042   -2.6292    0.0000 C   0  0  0  0  0  0  0  0  0  0  0  0
    1.5167   -3.0500    0.0000 N   0  0  0  0  0  0  0  0  0  0  0  0
    2.9500   -3.0500    0.0000 C   0  0  0  0  0  0  0  0  0  0  0  0
    2.9500   -1.3917    0.0000 C   0  0  0  0  0  0  0  0  0  0  0  0
    0.1000   -1.3875    0.0000 C   0  0  0  0  0  0  0  0  0  0  0  0
    3.6667   -2.6375    0.0000 C   0  0  0  0  0  0  0  0  0  0  0  0
    3.6667   -1.8042    0.0000 C   0  0  0  0  0  0  0  0  0  0  0  0
    4.3625   -2.9667    0.0000 O   0  0  0  0  0  0  0  0  0  0  0  0
    4.3792   -1.3917    0.0000 O   0  0  0  0  0  0  0  0  0  0  0  0
    1.5375   -0.5667    0.0000 O   0  0  0  0  0  0  0  0  0  0  0  0
    4.9250   -2.2167    0.0000 C   0  0  0  0  0  0  0  0  0  0  0  0
    0.1042   -0.5625    0.0000 O   0  0  0  0  0  0  0  0  0  0  0  0
   -0.6208   -1.7917    0.0000 O   0  0  0  0  0  0  0  0  0  0  0  0
    1.5167   -3.8750    0.0000 C   0  0  0  0  0  0  0  0  0  0  0  0
    0.8042   -4.2792    0.0000 C   0  0  0  0  0  0  0  0  0  0  0  0
  2  3  1  0
  3  1  1  0
  4  6  1  0
  5  1  2  0
  6  5  1  0
  7  4  2  0
  8  2  2  0
  9  1  1  0
 10  7  1  0
 11  8  1  0
 12 10  1  0
 13 11  1  0
 14  3  2  0
 15 13  1  0
 16  9  2  0
 17  9  1  0
 18  6  1  0
 19 18  1  0
  4  2  1  0
 10 11  2  0
 15 12  1  0
M  END
>  <ID>  (119) 


>  <MOLENAME>  (119) 
OXOLINIC ACID

>  <therap>  (119) 
antibacterial

>  <ref>  (119) 
Expert Opin. Drug Metab. Toxicol. (2010), 6(8), 919-938; J. Med. Chem. (1974), 17(11), 1237-9; Chem. Pharm. Bull. (1977), 25(8), 1877-91

>  <cas#>  (119) 
14698-29-4

>  <source>  (119) 
synthetic; W-4565

>  <status>  (119) 
USAN, INN, BAN

>  <tradename>  (119) 
UTIBID

>  <SMILES>  (119) 
CCn1cc(C(=O)O)c(=O)c2cc3c(cc21)OCO3

>  <standardized_failed>  (119) 
False

$$$$

     RDKit          2D

 10  9  0  0  0  0  0  0  0  0999 V2000
    8.9292   -4.5042    0.0000 C   0  0  0  0  0  0  0  0  0  0  0  0
    8.4625   -3.8250    0.0000 C   0  0  0  0  0  0  0  0  0  0  0  0
    8.4542   -5.2000    0.0000 C   0  0  0  0  0  0  0  0  0  0  0  0
    8.4625   -2.4917    0.0000 O   0  0  0  0  0  0  0  0  0  0  0  0
    8.9375   -3.1667    0.0000 C   0  0  0  0  0  0  0  0  0  0  0  0
    9.7542   -4.5042    0.0000 O   0  0  0  0  0  0  0  0  0  0  0  0
    7.6417   -3.8167    0.0000 O   0  0  0  0  0  0  0  0  0  0  0  0
    7.6292   -5.2167    0.0000 O   0  0  0  0  0  0  0  0  0  0  0  0
    8.4667   -6.5292    0.0000 O   0  0  0  0  0  0  0  0  0  0  0  0
    8.9292   -5.8500    0.0000 C   0  0  0  0  0  0  0  0  0  0  0  0
  2  1  1  0
  3  1  1  0
  4  5  2  0
  5  2  1  0
  1  6  1  1
  2  7  1  1
  3  8  1  1
  9 10  1  0
 10  3  1  0
M  END
>  <ID>  (120) 


>  <MOLENAME>  (120) 
XYLOSE

>  <therap>  (120) 
diagnostic aid 

>  <ref>  (120) 
nan

>  <cas#>  (120) 
58-86-6

>  <source>  (120) 
many woods, straw, corncobs, cottonseed hulls and pecan shells. 

>  <status>  (120) 
USP

>  <tradename>  (120) 
XYLOPHAN

>  <SMILES>  (120) 
O=C[C@H](O)[C@@H](O)[C@H](O)CO

>  <standardized_failed>  (120) 
False

$$$$

     RDKit          2D

 21 21  0  0  0  0  0  0  0  0999 V2000
    4.9667   -0.8917    0.0000 C   0  0  0  0  0  0  0  0  0  0  0  0
    4.2542   -1.3042    0.0000 C   0  0  0  0  0  0  0  0  0  0  0  0
    3.5417   -0.8917    0.0000 C   0  0  0  0  0  0  0  0  0  0  0  0
    4.9667   -0.0667    0.0000 O   0  0  0  0  0  0  0  0  0  0  0  0
    5.6792   -1.3000    0.0000 O   0  0  0  0  0  0  0  0  0  0  0  0
    2.8292   -1.3042    0.0000 C   0  0  0  0  0  0  0  0  0  0  0  0
    1.4042   -2.1375    0.0000 C   0  0  0  0  0  0  0  0  0  0  0  0
    6.3917   -0.8875    0.0000 C   0  0  0  0  0  0  0  0  0  0  0  0
    2.8292   -2.1375    0.0000 C   0  0  0  0  0  0  0  0  0  0  0  0
    2.1167   -0.8917    0.0000 C   0  0  0  0  0  0  0  0  0  0  0  0
    2.1167   -2.5500    0.0000 C   0  0  0  0  0  0  0  0  0  0  0  0
    1.4042   -1.3125    0.0000 C   0  0  0  0  0  0  0  0  0  0  0  0
    0.6875   -2.5500    0.0000 O   0  0  0  0  0  0  0  0  0  0  0  0
    7.1042   -1.2917    0.0000 C   0  0  0  0  0  0  0  0  0  0  0  0
   -0.0250   -2.1375    0.0000 C   0  0  0  0  0  0  0  0  0  0  0  0
    7.1042   -2.1167    0.0000 C   0  0  0  0  0  0  0  0  0  0  0  0
    7.8167   -0.8792    0.0000 C   0  0  0  0  0  0  0  0  0  0  0  0
    9.2417   -0.8750    0.0000 C   0  0  0  0  0  0  0  0  0  0  0  0
    8.5292   -1.2917    0.0000 C   0  0  0  0  0  0  0  0  0  0  0  0
    6.3917   -2.5292    0.0000 C   0  0  0  0  0  0  0  0  0  0  0  0
    9.9542   -1.2792    0.0000 C   0  0  0  0  0  0  0  0  0  0  0  0
  2  1  1  0
  3  2  2  0
  4  1  2  0
  5  1  1  0
  6  3  1  0
  7 12  1  0
  8  5  1  0
  9  6  2  0
 10  6  1  0
 11  9  1  0
 12 10  2  0
 13  7  1  0
 14  8  1  1
 15 13  1  0
 14 16  1  0
 17 14  1  0
 18 19  1  0
 19 17  1  0
 20 16  1  0
 21 18  1  0
  7 11  2  0
M  END
>  <ID>  (121) 


>  <MOLENAME>  (121) 
OCTINOXATE

>  <therap>  (121) 
sunscreen, UV-B absorber

>  <ref>  (121) 
J. Soc. Cosmet. Chem. (1984), 35(8), 439-45; Int. J. Dermatol. (1983), 22(4), 247-55; Int. J. Cosmet. Sci. (1979), 1(6), 341-61

>  <cas#>  (121) 
5466-77-3

>  <source>  (121) 
synthetic

>  <status>  (121) 
USP, INN

>  <tradename>  (121) 
nan

>  <SMILES>  (121) 
CCCC[C@@H](CC)COC(=O)/C=C/c1ccc(OC)cc1

>  <standardized_failed>  (121) 
False

$$$$

     RDKit          2D

 14 15  0  0  0  0  0  0  0  0999 V2000
    4.7125   -3.4458    0.0000 N   0  0  0  0  0  0  0  0  0  0  0  0
    4.7083   -2.6208    0.0000 C   0  0  0  0  0  0  0  0  0  0  0  0
    5.4917   -2.3583    0.0000 C   0  0  0  0  0  0  0  0  0  0  0  0
    3.9917   -2.2083    0.0000 N   0  0  0  0  0  0  0  0  0  0  0  0
    3.9917   -3.8625    0.0000 C   0  0  0  0  0  0  0  0  0  0  0  0
    3.2792   -2.6250    0.0000 N   0  0  0  0  0  0  0  0  0  0  0  0
    3.2792   -3.4500    0.0000 N   0  0  0  0  0  0  0  0  0  0  0  0
    5.9833   -3.0250    0.0000 N   0  0  0  0  0  0  0  0  0  0  0  0
    5.5000   -3.6958    0.0000 C   0  0  0  0  0  0  0  0  0  0  0  0
    5.7417   -1.5750    0.0000 C   0  0  0  0  0  0  0  0  0  0  0  0
    3.9958   -4.6875    0.0000 O   0  0  0  0  0  0  0  0  0  0  0  0
    5.1875   -0.9625    0.0000 O   0  0  0  0  0  0  0  0  0  0  0  0
    6.5458   -1.3958    0.0000 N   0  0  0  0  0  0  0  0  0  0  0  0
    2.5625   -3.8625    0.0000 C   0  0  0  0  0  0  0  0  0  0  0  0
  2  1  1  0
  3  2  2  0
  4  2  1  0
  5  1  1  0
  6  7  1  0
  7  5  1  0
  8  9  2  0
  9  1  1  0
 10  3  1  0
 11  5  2  0
 12 10  2  0
 13 10  1  0
 14  7  1  0
  3  8  1  0
  6  4  2  0
M  END
>  <ID>  (122) 


>  <MOLENAME>  (122) 
TEMOZOLAMIDE

>  <therap>  (122) 
antineoplastic

>  <ref>  (122) 
Cancer Treat Rev23:35 (1997); Exp Rev Anticancer Ther 1:13 (2001)

>  <cas#>  (122) 
85622-93-1

>  <source>  (122) 
synthetic; SCH-52365, M&B-39831

>  <status>  (122) 
USAN, INN, BAN

>  <tradename>  (122) 
TEMODAR

>  <SMILES>  (122) 
Cn1nnc2c(C(N)=O)ncn2c1=O

>  <standardized_failed>  (122) 
False

$$$$

     RDKit          2D

 46 50  0  0  0  0  0  0  0  0999 V2000
    4.8292   -4.6250    0.0000 C   0  0  0  0  0  0  0  0  0  0  0  0
    4.0167   -4.7625    0.0000 C   0  0  0  0  0  0  0  0  0  0  0  0
    3.7167   -5.5292    0.0000 C   0  0  0  0  0  0  0  0  0  0  0  0
    6.2417   -0.9375    0.0000 C   0  0  0  0  0  0  0  0  0  0  0  0
    5.2792   -3.9292    0.0000 C   0  0  0  0  0  0  0  0  0  0  0  0
    5.3542   -5.2625    0.0000 C   0  0  0  0  0  0  0  0  0  0  0  0
    7.6667   -0.9375    0.0000 C   0  0  0  0  0  0  0  0  0  0  0  0
    5.0542   -6.0292    0.0000 C   0  0  0  0  0  0  0  0  0  0  0  0
    2.9042   -5.4917    0.0000 O   0  0  0  0  0  0  0  0  0  0  0  0
    3.3667   -4.2500    0.0000 C   0  0  0  0  0  0  0  0  0  0  0  0
    6.9542    0.3083    0.0000 C   0  0  0  0  0  0  0  0  0  0  0  0
    6.9542   -1.3500    0.0000 O   0  0  0  0  0  0  0  0  0  0  0  0
    7.6667   -0.1042    0.0000 C   0  0  0  0  0  0  0  0  0  0  0  0
    4.2417   -6.1667    0.0000 C   0  0  0  0  0  0  0  0  0  0  0  0
    6.2417   -0.1042    0.0000 C   0  0  0  0  0  0  0  0  0  0  0  0
    8.3917   -1.3542    0.0000 C   0  0  0  0  0  0  0  0  0  0  0  0
    5.5292   -3.0042    0.0000 O   0  0  0  0  0  0  0  0  0  0  0  0
    6.2417   -1.7667    0.0000 C   0  0  0  0  0  0  0  0  0  0  0  0
    5.5292   -0.5250    0.0000 O   0  0  0  0  0  0  0  0  0  0  0  0
    5.5292   -2.1792    0.0000 C   0  0  0  0  0  0  0  0  0  0  0  0
    8.3917   -2.1917    0.0000 C   0  0  0  0  0  0  0  0  0  0  0  0
    2.6917   -4.7042    0.0000 C   0  0  0  0  0  0  0  0  0  0  0  0
    6.9542    1.1333    0.0000 N   0  0  0  0  0  0  0  0  0  0  0  0
    3.3667   -3.4167    0.0000 C   0  0  0  0  0  0  0  0  0  0  0  0
    5.8042   -4.5750    0.0000 O   0  0  0  0  0  0  0  0  0  0  0  0
    2.6542   -3.0125    0.0000 C   0  0  0  0  0  0  0  0  0  0  0  0
    2.6667   -0.5250    0.0000 C   0  0  0  0  0  0  0  0  0  0  0  0
    3.3792   -0.9375    0.0000 C   0  0  0  0  0  0  0  0  0  0  0  0
    4.8167   -1.7667    0.0000 C   0  0  0  0  0  0  0  0  0  0  0  0
    4.8167   -0.9375    0.0000 C   0  0  0  0  0  0  0  0  0  0  0  0
    4.0167   -3.9375    0.0000 O   0  0  0  0  0  0  0  0  0  0  0  0
    2.6542   -2.1792    0.0000 C   0  0  0  0  0  0  0  0  0  0  0  0
    1.9417   -0.9375    0.0000 C   0  0  0  0  0  0  0  0  0  0  0  0
    4.0917   -0.5250    0.0000 C   0  0  0  0  0  0  0  0  0  0  0  0
    3.9542   -6.9500    0.0000 O   0  0  0  0  0  0  0  0  0  0  0  0
    7.6708    1.5458    0.0000 O   0  0  0  0  0  0  0  0  0  0  0  0
    1.9417   -1.7667    0.0000 C   0  0  0  0  0  0  0  0  0  0  0  0
    5.5792   -6.6792    0.0000 C   0  0  0  0  0  0  0  0  0  0  0  0
    9.1042   -0.9417    0.0000 C   0  0  0  0  0  0  0  0  0  0  0  0
    9.1042   -2.6042    0.0000 C   0  0  0  0  0  0  0  0  0  0  0  0
    8.3917    0.3125    0.0000 C   0  0  0  0  0  0  0  0  0  0  0  0
    2.6667    0.3000    0.0000 C   0  0  0  0  0  0  0  0  0  0  0  0
    7.6708    2.3708    0.0000 C   0  0  0  0  0  0  0  0  0  0  0  0
    1.2292   -2.1875    0.0000 C   0  0  0  0  0  0  0  0  0  0  0  0
    9.1000   -3.4292    0.0000 C   0  0  0  0  0  0  0  0  0  0  0  0
    9.8167   -2.1958    0.0000 C   0  0  0  0  0  0  0  0  0  0  0  0
  2  1  1  0
  3  2  1  0
  4 18  1  1
  1  5  1  0
  1  6  1  6
  7 12  1  1
  8  6  2  0
  3  9  1  1
 10  2  1  0
 11 15  1  0
  4 12  1  0
 13 11  1  0
  3 14  1  0
  4 15  1  0
  7 16  1  0
 17  5  1  0
 20 18  1  1
 19 30  1  0
 20 17  1  0
 21 16  2  0
 22 10  1  0
 23 11  2  0
 24 10  2  0
 25  5  2  0
 26 24  1  0
 27 28  2  0
 28 34  1  0
 29 20  1  0
 30 29  1  0
  2 31  1  6
 32 26  2  0
 33 37  1  0
 30 34  1  1
 14 35  1  1
 36 23  1  0
 37 32  1  0
 38  8  1  0
 39 16  1  0
 40 21  1  0
 13 41  1  6
 42 27  1  0
 43 36  1  0
 37 44  1  6
 45 40  1  0
 46 40  1  0
  8 14  1  0
  9 22  1  0
 19  4  1  0
 27 33  1  0
 13  7  1  0
M  END
>  <ID>  (123) 


>  <MOLENAME>  (123) 
MOXIDECTIN

>  <therap>  (123) 
anthelmintic, antiparasitic

>  <ref>  (123) 
J Econ Entomol 84:1266 (1991); Am J Vet Res 53:1409 (1992)

>  <cas#>  (123) 
113507-06-5

>  <source>  (123) 
semisynthetic; CL-301423

>  <status>  (123) 
USAN, INN, BAN

>  <tradename>  (123) 
CYDECTIN

>  <SMILES>  (123) 
CO/N=C1/C[C@]2(C[C@@H]3C[C@@H](C/C=C(\C)C[C@@H](C)/C=C/C=C4\CO[C@@H]5[C@H](O)C(C)=C[C@@H](C(=O)O3)[C@]45O)O2)O[C@H](/C(C)=C/C(C)C)[C@H]1C

>  <standardized_failed>  (123) 
False

$$$$

     RDKit          2D

 26 27  0  0  0  0  0  0  0  0999 V2000
    3.3667   -4.7917    0.0000 C   0  0  0  0  0  0  0  0  0  0  0  0
    7.4875   -5.1750    0.0000 S   0  0  0  0  0  0  0  0  0  0  0  0
    3.3625   -3.9625    0.0000 C   0  0  0  0  0  0  0  0  0  0  0  0
    2.6458   -3.5500    0.0000 C   0  0  0  0  0  0  0  0  0  0  0  0
    1.9333   -3.9625    0.0000 C   0  0  0  0  0  0  0  0  0  0  0  0
    2.6458   -5.2042    0.0000 C   0  0  0  0  0  0  0  0  0  0  0  0
    1.9333   -4.7917    0.0000 C   0  0  0  0  0  0  0  0  0  0  0  0
    3.8625   -5.2792    0.0000 C   0  0  0  0  0  0  0  0  0  0  0  0
    8.2000   -5.5875    0.0000 O   0  0  0  0  0  0  0  0  0  0  0  0
    7.4875   -4.3500    0.0000 O   0  0  0  0  0  0  0  0  0  0  0  0
    3.6125   -6.0667    0.0000 C   0  0  0  0  0  0  0  0  0  0  0  0
    5.0458   -4.3875    0.0000 N   0  0  0  0  0  0  0  0  0  0  0  0
    8.2000   -4.7542    0.0000 O   0  0  0  0  0  0  0  0  0  0  0  0
    2.6417   -2.7250    0.0000 Cl  0  0  0  0  0  0  0  0  0  0  0  0
    4.1708   -6.6708    0.0000 C   0  0  0  0  0  0  0  0  0  0  0  0
    2.8083   -6.2417    0.0000 C   0  0  0  0  0  0  0  0  0  0  0  0
    1.2208   -3.5542    0.0000 O   0  0  0  0  0  0  0  0  0  0  0  0
    1.2167   -5.2042    0.0000 O   0  0  0  0  0  0  0  0  0  0  0  0
    6.7750   -5.5875    0.0000 C   0  0  0  0  0  0  0  0  0  0  0  0
    4.6625   -5.1458    0.0000 C   0  0  0  0  0  0  0  0  0  0  0  0
    3.1167   -7.6375    0.0000 C   0  0  0  0  0  0  0  0  0  0  0  0
    3.9250   -7.4542    0.0000 C   0  0  0  0  0  0  0  0  0  0  0  0
    2.5583   -7.0292    0.0000 C   0  0  0  0  0  0  0  0  0  0  0  0
    3.8792   -3.4625    0.0000 C   0  0  0  0  0  0  0  0  0  0  0  0
    2.8708   -8.4250    0.0000 O   0  0  0  0  0  0  0  0  0  0  0  0
    4.6792   -3.6125    0.0000 C   0  0  0  0  0  0  0  0  0  0  0  0
  3  1  1  0
  4  3  2  0
  5  4  1  0
  6  1  2  0
  7  6  1  0
  8  1  1  0
  9  2  2  0
 10  2  2  0
 11  8  1  0
 12 20  1  0
 13  2  1  0
 14  4  1  0
 15 11  2  0
 16 11  1  0
 17  5  1  0
 18  7  1  0
 19  2  1  0
 20  8  1  0
 21 23  1  0
 22 15  1  0
 23 16  2  0
 24  3  1  0
 25 21  1  0
 26 24  1  0
  7  5  2  0
 26 12  1  0
 22 21  2  0
M  END
>  <ID>  (124) 


>  <MOLENAME>  (124) 
FENOLDOPAM MESYLATE

>  <therap>  (124) 
antihypertensive, dopamine agonist

>  <ref>  (124) 
J Med Chem 23:973 (1980); Clin Pharmacol Ther 34:309 (1983); Am Heart J 116:473 (1988)

>  <cas#>  (124) 
67227-57-0

>  <source>  (124) 
synthetic; SK&F-82526-J

>  <status>  (124) 
USP, INN, BAN

>  <tradename>  (124) 
CORLOPAM

>  <SMILES>  (124) 
Oc1ccc(C2CNCCc3c(Cl)c(O)c(O)cc32)cc1

>  <standardized_failed>  (124) 
False

$$$$

     RDKit          2D

 19 20  0  0  0  0  0  0  0  0999 V2000
    4.7708   -1.7583    0.0000 N   0  0  0  0  0  0  0  0  0  0  0  0
    4.0542   -1.3542    0.0000 C   0  0  0  0  0  0  0  0  0  0  0  0
    3.3500   -1.7708    0.0000 C   0  0  0  0  0  0  0  0  0  0  0  0
    4.7792   -2.5875    0.0000 C   0  0  0  0  0  0  0  0  0  0  0  0
    4.0625   -3.0042    0.0000 N   0  0  0  0  0  0  0  0  0  0  0  0
    0.4917   -1.7792    0.0000 C   0  0  0  0  0  0  0  0  0  0  0  0
    3.3500   -2.5958    0.0000 C   0  0  0  0  0  0  0  0  0  0  0  0
    2.6333   -1.3625    0.0000 C   0  0  0  0  0  0  0  0  0  0  0  0
    0.4917   -2.6083    0.0000 C   0  0  0  0  0  0  0  0  0  0  0  0
    1.2042   -1.3667    0.0000 C   0  0  0  0  0  0  0  0  0  0  0  0
    1.9208   -1.7792    0.0000 C   0  0  0  0  0  0  0  0  0  0  0  0
    4.0500   -0.5292    0.0000 N   0  0  0  0  0  0  0  0  0  0  0  0
    1.2042   -3.0208    0.0000 C   0  0  0  0  0  0  0  0  0  0  0  0
    5.4958   -3.0000    0.0000 N   0  0  0  0  0  0  0  0  0  0  0  0
    1.9208   -2.6083    0.0000 C   0  0  0  0  0  0  0  0  0  0  0  0
   -0.2208   -1.3708    0.0000 O   0  0  0  0  0  0  0  0  0  0  0  0
   -0.2250   -3.0208    0.0000 O   0  0  0  0  0  0  0  0  0  0  0  0
   -0.2208   -0.5458    0.0000 C   0  0  0  0  0  0  0  0  0  0  0  0
   -0.9375   -2.6083    0.0000 C   0  0  0  0  0  0  0  0  0  0  0  0
  2  1  2  0
  3  2  1  0
  4  1  1  0
  5  4  2  0
  6 10  2  0
  7  3  2  0
  8  3  1  0
  9  6  1  0
 10 11  1  0
 11  8  1  0
 12  2  1  0
 13 15  1  0
 14  4  1  0
 15 11  2  0
 16  6  1  0
 17  9  1  0
 18 16  1  0
 19 17  1  0
  5  7  1  0
 13  9  2  0
M  END
>  <ID>  (125) 


>  <MOLENAME>  (125) 
DIAVERIDINE

>  <therap>  (125) 
antibacterial

>  <ref>  (125) 
JACS 73:3758 (1951); J Med Chem 14:462 (1971)

>  <cas#>  (125) 
5355-16-18

>  <source>  (125) 
synthetic; BW-49-210

>  <status>  (125) 
USAN, INN, BAN

>  <tradename>  (125) 
nan

>  <SMILES>  (125) 
COc1ccc(Cc2cnc(N)nc2N)cc1OC

>  <standardized_failed>  (125) 
False

$$$$

     RDKit          2D

 15 15  0  0  0  0  0  0  0  0999 V2000
    3.8750   -1.1167    0.0000 C   0  0  0  0  0  0  0  0  0  0  0  0
    4.5875   -0.7042    0.0000 N   0  0  0  0  0  0  0  0  0  0  0  0
    4.5875    0.1208    0.0000 N   0  0  0  0  0  0  0  0  0  0  0  0
    3.1625   -0.7042    0.0000 N   0  0  0  0  0  0  0  0  0  0  0  0
    3.8750   -1.9417    0.0000 O   0  0  0  0  0  0  0  0  0  0  0  0
    5.3000    0.5333    0.0000 O   0  0  0  0  0  0  0  0  0  0  0  0
    5.3000   -1.1167    0.0000 C   0  0  0  0  0  0  0  0  0  0  0  0
    2.4500   -1.1167    0.0000 C   0  0  0  0  0  0  0  0  0  0  0  0
    6.7250   -1.1167    0.0000 Cl  0  0  0  0  0  0  0  0  0  0  0  0
    6.0125   -0.7042    0.0000 C   0  0  0  0  0  0  0  0  0  0  0  0
    1.7375   -0.7042    0.0000 C   0  0  0  0  0  0  0  0  0  0  0  0
    2.4500   -1.9417    0.0000 C   0  0  0  0  0  0  0  0  0  0  0  0
    1.0292   -1.1167    0.0000 C   0  0  0  0  0  0  0  0  0  0  0  0
    1.7375   -2.3542    0.0000 C   0  0  0  0  0  0  0  0  0  0  0  0
    1.0292   -1.9417    0.0000 C   0  0  0  0  0  0  0  0  0  0  0  0
  2  1  1  0
  3  2  1  0
  4  1  1  0
  5  1  2  0
  6  3  2  0
  7  2  1  0
  8  4  1  0
  9 10  1  0
 10  7  1  0
 11  8  1  0
 12  8  1  0
 13 11  1  0
 14 12  1  0
 15 13  1  0
 14 15  1  0
M  END
>  <ID>  (126) 


>  <MOLENAME>  (126) 
LOMUSTINE

>  <therap>  (126) 
antineoplastic

>  <ref>  (126) 
J Med Chem 9:892 (1966); Toxicol Appl Pharmacol 21:405 (1972)

>  <cas#>  (126) 
13010-47-4

>  <source>  (126) 
synthetic; CCNU, NSC-79037

>  <status>  (126) 
USAN, INN, BAN

>  <tradename>  (126) 
CEENU

>  <SMILES>  (126) 
O=NN(CCCl)C(=O)NC1CCCCC1

>  <standardized_failed>  (126) 
False

$$$$

     RDKit          2D

 34 37  0  0  0  0  0  0  0  0999 V2000
    8.6750   -0.5958    0.0000 C   0  0  0  0  0  0  0  0  0  0  0  0
    8.1875   -1.2667    0.0000 O   0  0  0  0  0  0  0  0  0  0  0  0
    8.1875    0.0708    0.0000 C   0  0  0  0  0  0  0  0  0  0  0  0
    7.4000   -0.1833    0.0000 C   0  0  0  0  0  0  0  0  0  0  0  0
    5.2667    0.2250    0.0000 N   0  0  0  0  0  0  0  0  0  0  0  0
    0.7417   -1.0875    0.0000 N   0  0  0  0  0  0  0  0  0  0  0  0
   -0.0458   -0.0000    0.0000 C   0  0  0  0  0  0  0  0  0  0  0  0
    9.5000   -0.6000    0.0000 C   0  0  0  0  0  0  0  0  0  0  0  0
    7.4000   -1.0083    0.0000 C   0  0  0  0  0  0  0  0  0  0  0  0
    1.2333   -0.4125    0.0000 C   0  0  0  0  0  0  0  0  0  0  0  0
    0.7417    0.2583    0.0000 C   0  0  0  0  0  0  0  0  0  0  0  0
    5.9792   -0.1875    0.0000 C   0  0  0  0  0  0  0  0  0  0  0  0
   -2.9083    0.8208    0.0000 N   0  0  0  0  0  0  0  0  0  0  0  0
   -0.0458   -0.8292    0.0000 C   0  0  0  0  0  0  0  0  0  0  0  0
    6.6875    0.2250    0.0000 C   0  0  0  0  0  0  0  0  0  0  0  0
    3.8417    1.0458    0.0000 N   0  0  0  0  0  0  0  0  0  0  0  0
   -2.1875    0.4083    0.0000 C   0  0  0  0  0  0  0  0  0  0  0  0
   -0.7625    0.4125    0.0000 C   0  0  0  0  0  0  0  0  0  0  0  0
    4.5542   -0.1875    0.0000 C   0  0  0  0  0  0  0  0  0  0  0  0
    5.2667    1.0500    0.0000 C   0  0  0  0  0  0  0  0  0  0  0  0
    9.9125    0.1167    0.0000 O   0  0  0  0  0  0  0  0  0  0  0  0
    6.6875   -1.4250    0.0000 C   0  0  0  0  0  0  0  0  0  0  0  0
    5.9750   -1.0125    0.0000 C   0  0  0  0  0  0  0  0  0  0  0  0
   -1.4750   -0.0000    0.0000 C   0  0  0  0  0  0  0  0  0  0  0  0
   -0.7625   -1.2417    0.0000 C   0  0  0  0  0  0  0  0  0  0  0  0
    9.9125   -1.3125    0.0000 N   0  0  0  0  0  0  0  0  0  0  0  0
    3.8417    0.2250    0.0000 C   0  0  0  0  0  0  0  0  0  0  0  0
    4.5542    1.4583    0.0000 C   0  0  0  0  0  0  0  0  0  0  0  0
   -1.4750   -0.8292    0.0000 C   0  0  0  0  0  0  0  0  0  0  0  0
    2.7042   -1.2167    0.0000 Cl  0  0  0  0  0  0  0  0  0  0  0  0
    3.1292    1.4583    0.0000 C   0  0  0  0  0  0  0  0  0  0  0  0
    0.9917    1.0458    0.0000 C   0  0  0  0  0  0  0  0  0  0  0  0
    2.4167    1.0458    0.0000 C   0  0  0  0  0  0  0  0  0  0  0  0
    1.7042    1.4583    0.0000 C   0  0  0  0  0  0  0  0  0  0  0  0
  2  1  1  0
  3  1  2  0
  4  3  1  0
  5 12  1  0
  6 10  1  0
  7 11  1  0
  8  1  1  0
  9  2  1  0
 10 11  2  0
 11 32  1  0
 12 15  1  0
 13 17  3  0
 14  7  2  0
 15  4  2  0
 16 28  1  0
 17 24  1  0
 18  7  1  0
 19  5  1  0
 20  5  1  0
 21  8  2  0
 22  9  2  0
 23 22  1  0
 24 18  2  0
 25 14  1  0
 26  8  1  0
 27 19  1  0
 28 20  1  0
 29 25  2  0
 31 16  1  0
 32 34  1  0
 33 31  1  0
 34 33  1  0
  9  4  1  0
 23 12  2  0
 27 16  1  0
  6 14  1  0
 29 24  1  0
M  END
>  <ID>  (127) 


>  <MOLENAME>  (127) 
VILAZODONE HYDROCHLORIDE

>  <therap>  (127) 
antidepressant, serotonin reuptake inhibitor, 5HT1A agonist

>  <ref>  (127) 
J Psychosocial Nurse Mental Health 49:19 (2011); Psychopharmacology 1:3 81 (2011)

>  <cas#>  (127) 
163521-12-8 (base)

>  <source>  (127) 
synthetic

>  <status>  (127) 
USAN, INN

>  <tradename>  (127) 
VIIBRYD

>  <SMILES>  (127) 
N#Cc1cc2c(cc1)[nH]cc2CCCCN1CCN(c2ccc3oc(C(N)=O)cc3c2)CC1

>  <standardized_failed>  (127) 
False

$$$$

     RDKit          2D

 26 29  0  0  0  0  0  0  0  0999 V2000
    7.6792   -2.3042    0.0000 N   0  0  0  0  0  0  0  0  0  0  0  0
    8.4042   -3.5375    0.0000 C   0  0  0  0  0  0  0  0  0  0  0  0
    6.9667   -2.7167    0.0000 C   0  0  0  0  0  0  0  0  0  0  0  0
    6.2542   -2.3042    0.0000 C   0  0  0  0  0  0  0  0  0  0  0  0
    6.9750   -3.5417    0.0000 C   0  0  0  0  0  0  0  0  0  0  0  0
    8.4000   -2.7042    0.0000 C   0  0  0  0  0  0  0  0  0  0  0  0
    7.6917   -3.9542    0.0000 C   0  0  0  0  0  0  0  0  0  0  0  0
    5.5417   -2.7167    0.0000 C   0  0  0  0  0  0  0  0  0  0  0  0
    6.2542   -1.4792    0.0000 O   0  0  0  0  0  0  0  0  0  0  0  0
    5.5417   -3.5417    0.0000 C   0  0  0  0  0  0  0  0  0  0  0  0
    6.2542   -3.9542    0.0000 C   0  0  0  0  0  0  0  0  0  0  0  0
    4.8292   -2.3042    0.0000 N   0  0  0  0  0  0  0  0  0  0  0  0
    9.1167   -3.9417    0.0000 C   0  0  0  0  0  0  0  0  0  0  0  0
    7.6792   -1.4792    0.0000 C   0  0  0  0  0  0  0  0  0  0  0  0
    3.4042   -1.4792    0.0000 N   0  0  0  0  0  0  0  0  0  0  0  0
    7.6917   -4.7792    0.0000 O   0  0  0  0  0  0  0  0  0  0  0  0
    6.9667   -1.0667    0.0000 C   0  0  0  0  0  0  0  0  0  0  0  0
    4.8292   -1.4792    0.0000 C   0  0  0  0  0  0  0  0  0  0  0  0
    4.1167   -2.7167    0.0000 C   0  0  0  0  0  0  0  0  0  0  0  0
    9.8292   -3.5292    0.0000 O   0  0  0  0  0  0  0  0  0  0  0  0
    4.8292   -3.9542    0.0000 F   0  0  0  0  0  0  0  0  0  0  0  0
    3.4042   -2.3042    0.0000 C   0  0  0  0  0  0  0  0  0  0  0  0
    4.1250   -1.0667    0.0000 C   0  0  0  0  0  0  0  0  0  0  0  0
    9.1250   -4.7667    0.0000 O   0  0  0  0  0  0  0  0  0  0  0  0
    2.6917   -1.0625    0.0000 C   0  0  0  0  0  0  0  0  0  0  0  0
    8.3917   -1.0667    0.0000 C   0  0  0  0  0  0  0  0  0  0  0  0
  2  6  2  0
  3  1  1  0
  4  3  1  0
  5  3  2  0
  6  1  1  0
  7  2  1  0
  8  4  2  0
  9 17  1  0
 10 11  2  0
 11  5  1  0
 12  8  1  0
 13  2  1  0
 14  1  1  0
 15 22  1  0
 16  7  2  0
 17 14  1  0
 18 12  1  0
 19 12  1  0
 20 13  2  0
 21 10  1  0
 22 19  1  0
 23 18  1  0
 24 13  1  0
 25 15  1  0
 26 14  1  0
  9  4  1  0
  7  5  1  0
 10  8  1  0
 15 23  1  0
M  END
>  <ID>  (128) 


>  <MOLENAME>  (128) 
OFLOXACIN

>  <therap>  (128) 
antibacterial

>  <ref>  (128) 
J Antimicrob Chemother 22 Suppl C 9 (1988); 39:829 (1997)

>  <cas#>  (128) 
82419-36-1

>  <source>  (128) 
synthetic

>  <status>  (128) 
USP, INN, BAN, JAN

>  <tradename>  (128) 
FLOXIN

>  <SMILES>  (128) 
CC1COc2c(N3CCN(C)CC3)c(F)cc3c2n1cc(C(=O)O)c3=O

>  <standardized_failed>  (128) 
False

$$$$

     RDKit          2D

 25 26  0  0  0  0  0  0  0  0999 V2000
    7.5667   -2.3917    0.0000 C   0  0  0  0  0  0  0  0  0  0  0  0
    8.3917   -2.3917    0.0000 C   0  0  0  0  0  0  0  0  0  0  0  0
    2.2125   -0.2500    0.0000 C   0  0  0  0  0  0  0  0  0  0  0  0
    7.1542   -1.6792    0.0000 O   0  0  0  0  0  0  0  0  0  0  0  0
    1.3875   -0.2500    0.0000 C   0  0  0  0  0  0  0  0  0  0  0  0
    8.8042   -1.6792    0.0000 O   0  0  0  0  0  0  0  0  0  0  0  0
    2.6250    0.4625    0.0000 O   0  0  0  0  0  0  0  0  0  0  0  0
    2.6250   -0.9667    0.0000 N   0  0  0  0  0  0  0  0  0  0  0  0
    0.9750    0.4625    0.0000 C   0  0  0  0  0  0  0  0  0  0  0  0
    0.9750   -0.9625    0.0000 C   0  0  0  0  0  0  0  0  0  0  0  0
    6.3292   -1.6792    0.0000 C   0  0  0  0  0  0  0  0  0  0  0  0
    8.8042   -3.1042    0.0000 O   0  0  0  0  0  0  0  0  0  0  0  0
   -0.2583   -0.2542    0.0000 C   0  0  0  0  0  0  0  0  0  0  0  0
    0.1500   -0.9625    0.0000 C   0  0  0  0  0  0  0  0  0  0  0  0
    0.1500    0.4583    0.0000 C   0  0  0  0  0  0  0  0  0  0  0  0
    4.6875   -1.6792    0.0000 C   0  0  0  0  0  0  0  0  0  0  0  0
   -1.0833   -0.2542    0.0000 Cl  0  0  0  0  0  0  0  0  0  0  0  0
    5.9167   -0.9667    0.0000 C   0  0  0  0  0  0  0  0  0  0  0  0
    5.9167   -2.4000    0.0000 C   0  0  0  0  0  0  0  0  0  0  0  0
    5.0917   -0.9667    0.0000 C   0  0  0  0  0  0  0  0  0  0  0  0
    5.0917   -2.4000    0.0000 C   0  0  0  0  0  0  0  0  0  0  0  0
    3.4500   -0.9667    0.0000 C   0  0  0  0  0  0  0  0  0  0  0  0
    7.5667   -3.2167    0.0000 C   0  0  0  0  0  0  0  0  0  0  0  0
    6.8542   -2.8042    0.0000 C   0  0  0  0  0  0  0  0  0  0  0  0
    3.8625   -1.6792    0.0000 C   0  0  0  0  0  0  0  0  0  0  0  0
  2  1  1  0
  3  8  1  0
  4  1  1  0
  5  3  1  0
  6  2  2  0
  7  3  2  0
  8 22  1  0
  9  5  2  0
 10  5  1  0
 11  4  1  0
 12  2  1  0
 13 14  1  0
 14 10  2  0
 15  9  1  0
 16 21  1  0
 17 13  1  0
 18 11  2  0
 19 11  1  0
 20 18  1  0
 21 19  2  0
 22 25  1  0
 23  1  1  0
 24  1  1  0
 25 16  1  0
 20 16  2  0
 15 13  2  0
M  END
>  <ID>  (129) 


>  <MOLENAME>  (129) 
BEZAFIBRATE

>  <therap>  (129) 
antihyperlipidemic

>  <ref>  (129) 
Atherosclerosis 29:477 (1978); 31:421, 429 (1978); Drugs 33:539 (1987)

>  <cas#>  (129) 
41859-67-0

>  <source>  (129) 
synthetic; BM-15075

>  <status>  (129) 
USAN, INN, BAN, JAN

>  <tradename>  (129) 
nan

>  <SMILES>  (129) 
CC(C)(Oc1ccc(CCNC(=O)c2ccc(Cl)cc2)cc1)C(=O)O

>  <standardized_failed>  (129) 
False

$$$$

     RDKit          2D

 33 38  0  0  0  0  0  0  0  0999 V2000
    6.6875   -5.6667    0.0000 C   0  0  0  0  0  0  0  0  0  0  0  0
    5.9042   -5.9167    0.0000 C   0  0  0  0  0  0  0  0  0  0  0  0
    7.4792   -5.4542    0.0000 O   0  0  0  0  0  0  0  0  0  0  0  0
    5.8917   -6.7417    0.0000 C   0  0  0  0  0  0  0  0  0  0  0  0
    8.2792   -5.6667    0.0000 C   0  0  0  0  0  0  0  0  0  0  0  0
    3.7542   -7.1375    0.0000 C   0  0  0  0  0  0  0  0  0  0  0  0
    7.1625   -6.3417    0.0000 C   0  0  0  0  0  0  0  0  0  0  0  0
    7.9542   -6.1250    0.0000 O   0  0  0  0  0  0  0  0  0  0  0  0
    3.7500   -7.9625    0.0000 C   0  0  0  0  0  0  0  0  0  0  0  0
    4.4667   -6.7250    0.0000 C   0  0  0  0  0  0  0  0  0  0  0  0
    5.1750   -7.1417    0.0000 C   0  0  0  0  0  0  0  0  0  0  0  0
    6.6750   -7.0000    0.0000 C   0  0  0  0  0  0  0  0  0  0  0  0
    3.0417   -8.3667    0.0000 C   0  0  0  0  0  0  0  0  0  0  0  0
    5.1917   -5.4917    0.0000 C   0  0  0  0  0  0  0  0  0  0  0  0
    6.6792   -4.8417    0.0000 C   0  0  0  0  0  0  0  0  0  0  0  0
    4.4750   -5.9000    0.0000 C   0  0  0  0  0  0  0  0  0  0  0  0
    3.0417   -6.7167    0.0000 C   0  0  0  0  0  0  0  0  0  0  0  0
    5.1792   -7.9667    0.0000 C   0  0  0  0  0  0  0  0  0  0  0  0
    4.4625   -8.3750    0.0000 C   0  0  0  0  0  0  0  0  0  0  0  0
    2.3292   -7.9625    0.0000 C   0  0  0  0  0  0  0  0  0  0  0  0
    9.0750   -5.8792    0.0000 C   0  0  0  0  0  0  0  0  0  0  0  0
    5.9625   -4.4375    0.0000 O   0  0  0  0  0  0  0  0  0  0  0  0
    1.6167   -8.3750    0.0000 O   0  0  0  0  0  0  0  0  0  0  0  0
    5.9000   -5.0917    0.0000 C   0  0  0  0  0  0  0  0  0  0  0  0
    2.3292   -7.1375    0.0000 C   0  0  0  0  0  0  0  0  0  0  0  0
    8.2750   -4.8417    0.0000 C   0  0  0  0  0  0  0  0  0  0  0  0
    3.7500   -6.3125    0.0000 C   0  0  0  0  0  0  0  0  0  0  0  0
    7.3917   -4.4250    0.0000 C   0  0  0  0  0  0  0  0  0  0  0  0
    9.2792   -6.6750    0.0000 C   0  0  0  0  0  0  0  0  0  0  0  0
    9.6500   -5.2917    0.0000 C   0  0  0  0  0  0  0  0  0  0  0  0
   10.4417   -5.5042    0.0000 C   0  0  0  0  0  0  0  0  0  0  0  0
   10.0792   -6.8875    0.0000 C   0  0  0  0  0  0  0  0  0  0  0  0
   10.6625   -6.3042    0.0000 C   0  0  0  0  0  0  0  0  0  0  0  0
  2  1  1  0
  1  3  1  0
  4  2  1  0
  5  3  1  0
  6 10  1  0
  7  1  1  0
  7  8  1  0
  9  6  1  0
 10 16  1  0
 11  4  1  0
  7 12  1  6
 13  9  2  0
 14  2  1  0
  1 15  1  1
 16 14  1  0
 17  6  1  0
 18 11  1  0
 19 18  1  0
 20 25  1  0
  5 21  1  0
 22 15  2  0
 23 20  2  0
  2 24  1  1
 25 17  1  0
  5 26  1  1
  6 27  1  1
 28 15  1  0
 29 21  2  0
 30 21  1  0
 31 30  2  0
 32 29  1  0
 33 31  1  0
 12  4  1  0
  8  5  1  0
 10 11  1  0
 19  9  1  0
 33 32  2  0
 20 13  1  0
M  END
>  <ID>  (130) 


>  <MOLENAME>  (130) 
ALGESTONE ACETOPHENIDE

>  <therap>  (130) 
antiacne, progestin

>  <ref>  (130) 
J Anim Sci 26:764 (1967); Acta Endocrinol 61:494 (1969); 65:683 (1970)

>  <cas#>  (130) 
24356-94-3

>  <source>  (130) 
semisynthetic; SQ-15101

>  <status>  (130) 
USAN

>  <tradename>  (130) 
DROXONE

>  <SMILES>  (130) 
CC(=O)[C@@]12O[C@](C)(c3ccccc3)O[C@@H]1CC1C3CCC4=CC(=O)CC[C@]4(C)C3CC[C@@]12C

>  <standardized_failed>  (130) 
False

$$$$

     RDKit          2D

 18 19  0  0  0  0  0  0  0  0999 V2000
    2.1833   -4.1958    0.0000 C   0  0  0  0  0  0  0  0  0  0  0  0
    2.1792   -3.3708    0.0000 C   0  0  0  0  0  0  0  0  0  0  0  0
    1.4625   -4.6125    0.0000 N   0  0  0  0  0  0  0  0  0  0  0  0
    0.7500   -3.3750    0.0000 N   0  0  0  0  0  0  0  0  0  0  0  0
    2.9625   -3.1083    0.0000 N   0  0  0  0  0  0  0  0  0  0  0  0
    1.4625   -2.9583    0.0000 C   0  0  0  0  0  0  0  0  0  0  0  0
    0.7500   -4.2000    0.0000 C   0  0  0  0  0  0  0  0  0  0  0  0
    2.9708   -4.4458    0.0000 N   0  0  0  0  0  0  0  0  0  0  0  0
    3.4542   -3.7750    0.0000 C   0  0  0  0  0  0  0  0  0  0  0  0
    1.4583   -2.1333    0.0000 O   0  0  0  0  0  0  0  0  0  0  0  0
    3.2292   -5.2292    0.0000 C   0  0  0  0  0  0  0  0  0  0  0  0
    0.0333   -4.6125    0.0000 N   0  0  0  0  0  0  0  0  0  0  0  0
    4.0500   -5.2292    0.0000 C   0  0  0  0  0  0  0  0  0  0  0  0
    4.4625   -5.9417    0.0000 C   0  0  0  0  0  0  0  0  0  0  0  0
    5.6917   -6.6542    0.0000 O   0  0  0  0  0  0  0  0  0  0  0  0
    3.2250   -6.6542    0.0000 O   0  0  0  0  0  0  0  0  0  0  0  0
    4.0500   -6.6542    0.0000 C   0  0  0  0  0  0  0  0  0  0  0  0
    5.2792   -5.9417    0.0000 C   0  0  0  0  0  0  0  0  0  0  0  0
  2  1  2  0
  3  1  1  0
  4  7  1  0
  5  2  1  0
  6  2  1  0
  7  3  2  0
  8  1  1  0
  9  8  1  0
 10  6  2  0
 11  8  1  0
 12  7  1  0
 13 11  1  0
 14 13  1  0
 15 18  1  0
 16 17  1  0
 17 14  1  0
 18 14  1  0
  5  9  2  0
  4  6  1  0
M  END
>  <ID>  (131) 


>  <MOLENAME>  (131) 
PENCICLOVIR

>  <therap>  (131) 
antiviral

>  <ref>  (131) 
Drugs Future 14:347 (1989); Eur J Clin Pharmacol 43:513 (1992)

>  <cas#>  (131) 
39809-25-1

>  <source>  (131) 
synthetic; BRL-39123

>  <status>  (131) 
USAN, INN, BAN

>  <tradename>  (131) 
DENAVIR

>  <SMILES>  (131) 
Nc1nc2c(ncn2CCC(CO)CO)c(=O)[nH]1

>  <standardized_failed>  (131) 
False

$$$$

     RDKit          2D

 33 36  0  0  0  0  0  0  0  0999 V2000
    1.1542   -2.0375    0.0000 N   0  0  0  0  0  0  0  0  0  0  0  0
    1.9042   -2.3708    0.0000 C   0  0  0  0  0  0  0  0  0  0  0  0
    2.0417   -1.0458    0.0000 N   0  0  0  0  0  0  0  0  0  0  0  0
    2.4542   -1.7583    0.0000 N   0  0  0  0  0  0  0  0  0  0  0  0
    1.2375   -1.2167    0.0000 C   0  0  0  0  0  0  0  0  0  0  0  0
    6.7417   -0.9250    0.0000 N   0  0  0  0  0  0  0  0  0  0  0  0
    7.4542   -0.5167    0.0000 C   0  0  0  0  0  0  0  0  0  0  0  0
    5.3042   -1.7458    0.0000 N   0  0  0  0  0  0  0  0  0  0  0  0
    2.0750   -3.1750    0.0000 O   0  0  0  0  0  0  0  0  0  0  0  0
    8.1667   -0.9333    0.0000 C   0  0  0  0  0  0  0  0  0  0  0  0
    6.0250   -0.5083    0.0000 C   0  0  0  0  0  0  0  0  0  0  0  0
    6.7333   -1.7500    0.0000 C   0  0  0  0  0  0  0  0  0  0  0  0
    0.4417   -2.4500    0.0000 C   0  0  0  0  0  0  0  0  0  0  0  0
    3.1667   -2.1667    0.0000 C   0  0  0  0  0  0  0  0  0  0  0  0
    5.3000   -0.9167    0.0000 C   0  0  0  0  0  0  0  0  0  0  0  0
    6.0208   -2.1625    0.0000 C   0  0  0  0  0  0  0  0  0  0  0  0
    8.8833   -0.5250    0.0000 C   0  0  0  0  0  0  0  0  0  0  0  0
    3.8792   -1.7542    0.0000 C   0  0  0  0  0  0  0  0  0  0  0  0
    0.6250   -0.6667    0.0000 C   0  0  0  0  0  0  0  0  0  0  0  0
    4.5917   -2.1542    0.0000 C   0  0  0  0  0  0  0  0  0  0  0  0
    9.5958   -0.9417    0.0000 Cl  0  0  0  0  0  0  0  0  0  0  0  0
   -0.9833   -2.4542    0.0000 O   0  0  0  0  0  0  0  0  0  0  0  0
   -0.2708   -2.0417    0.0000 C   0  0  0  0  0  0  0  0  0  0  0  0
   -1.6958   -2.0458    0.0000 C   0  0  0  0  0  0  0  0  0  0  0  0
    7.4583    0.3042    0.0000 C   0  0  0  0  0  0  0  0  0  0  0  0
    8.1708    0.7167    0.0000 C   0  0  0  0  0  0  0  0  0  0  0  0
    8.8875    0.3000    0.0000 C   0  0  0  0  0  0  0  0  0  0  0  0
   -1.6958   -1.2167    0.0000 C   0  0  0  0  0  0  0  0  0  0  0  0
   -2.4125   -2.4583    0.0000 C   0  0  0  0  0  0  0  0  0  0  0  0
    0.7958    0.1417    0.0000 C   0  0  0  0  0  0  0  0  0  0  0  0
   -3.1250   -2.0458    0.0000 C   0  0  0  0  0  0  0  0  0  0  0  0
   -2.4125   -0.8042    0.0000 C   0  0  0  0  0  0  0  0  0  0  0  0
   -3.1250   -1.2167    0.0000 C   0  0  0  0  0  0  0  0  0  0  0  0
  2  1  1  0
  3  5  2  0
  4  2  1  0
  5  1  1  0
  6 11  1  0
  7  6  1  0
  8 20  1  0
  9  2  2  0
 10  7  2  0
 11 15  1  0
 12 16  1  0
 13  1  1  0
 14  4  1  0
 15  8  1  0
 16  8  1  0
 17 10  1  0
 18 14  1  0
 19  5  1  0
 20 18  1  0
 21 17  1  0
 22 23  1  0
 23 13  1  0
 24 22  1  0
 25  7  1  0
 26 25  2  0
 27 26  1  0
 28 24  2  0
 29 24  1  0
 30 19  1  0
 31 29  2  0
 32 28  1  0
 33 32  2  0
  3  4  1  0
 31 33  1  0
  6 12  1  0
 27 17  2  0
M  END
>  <ID>  (132) 


>  <MOLENAME>  (132) 
NEFAZODONE HYDROCHLORIDE

>  <therap>  (132) 
antidepressant

>  <ref>  (132) 
Psychopharmacol Bull 26:147, 311 (1990); N Engl J Med 342:1462 (2000)

>  <cas#>  (132) 
82752-99-6

>  <source>  (132) 
synthetic; MJ-1374-1, BMY-1374

>  <status>  (132) 
USAN, INN, BAN

>  <tradename>  (132) 
SERZONE

>  <SMILES>  (132) 
CCc1nn(CCCN2CCN(c3cc(Cl)ccc3)CC2)c(=O)n1CCOc1ccccc1

>  <standardized_failed>  (132) 
False

$$$$

     RDKit          2D

 27 29  0  0  0  0  0  0  0  0999 V2000
    2.0042   -1.0417    0.0000 C   0  0  0  0  0  0  0  0  0  0  0  0
    2.0042   -0.2125    0.0000 C   0  0  0  0  0  0  0  0  0  0  0  0
    1.2917   -1.4542    0.0000 N   0  0  0  0  0  0  0  0  0  0  0  0
    2.7250   -1.4500    0.0000 N   0  0  0  0  0  0  0  0  0  0  0  0
    1.2875    0.1958    0.0000 N   0  0  0  0  0  0  0  0  0  0  0  0
    3.4292   -0.2000    0.0000 N   0  0  0  0  0  0  0  0  0  0  0  0
    2.7167    0.2083    0.0000 C   0  0  0  0  0  0  0  0  0  0  0  0
    3.4417   -1.0292    0.0000 C   0  0  0  0  0  0  0  0  0  0  0  0
    0.5792   -1.0417    0.0000 C   0  0  0  0  0  0  0  0  0  0  0  0
    0.5792   -0.2167    0.0000 C   0  0  0  0  0  0  0  0  0  0  0  0
    1.2917   -2.2792    0.0000 C   0  0  0  0  0  0  0  0  0  0  0  0
   -0.1375   -1.4625    0.0000 C   0  0  0  0  0  0  0  0  0  0  0  0
    0.5292   -2.5417    0.0000 C   0  0  0  0  0  0  0  0  0  0  0  0
    0.5417   -3.3875    0.0000 C   0  0  0  0  0  0  0  0  0  0  0  0
   -0.1375    0.1958    0.0000 C   0  0  0  0  0  0  0  0  0  0  0  0
   -0.8500   -1.0500    0.0000 C   0  0  0  0  0  0  0  0  0  0  0  0
   -0.8500   -0.2167    0.0000 C   0  0  0  0  0  0  0  0  0  0  0  0
    2.7042    1.0333    0.0000 O   0  0  0  0  0  0  0  0  0  0  0  0
    4.1625   -1.4417    0.0000 O   0  0  0  0  0  0  0  0  0  0  0  0
   -0.2375   -3.6875    0.0000 C   0  0  0  0  0  0  0  0  0  0  0  0
   -0.1333   -2.0667    0.0000 O   0  0  0  0  0  0  0  0  0  0  0  0
    1.2167   -3.8542    0.0000 O   0  0  0  0  0  0  0  0  0  0  0  0
   -0.9125   -3.2250    0.0000 O   0  0  0  0  0  0  0  0  0  0  0  0
   -0.9875   -4.7875    0.0000 O   0  0  0  0  0  0  0  0  0  0  0  0
   -0.2208   -4.5000    0.0000 C   0  0  0  0  0  0  0  0  0  0  0  0
   -1.5708   -1.4625    0.0000 C   0  0  0  0  0  0  0  0  0  0  0  0
   -1.5625    0.1875    0.0000 C   0  0  0  0  0  0  0  0  0  0  0  0
  2  1  1  0
  3  1  1  0
  4  1  2  0
  5  2  2  0
  6  8  1  0
  7  2  1  0
  8  4  1  0
  9  3  1  0
 10  9  2  0
 11  3  1  0
 12  9  1  0
 13 11  1  0
 14 13  1  0
 15 10  1  0
 16 12  2  0
 17 16  1  0
 18  7  2  0
 19  8  2  0
 20 14  1  0
 13 21  1  6
 14 22  1  1
 20 23  1  6
 24 25  1  0
 25 20  1  0
 26 16  1  0
 27 17  1  0
  7  6  1  0
 10  5  1  0
 15 17  2  0
M  END
>  <ID>  (133) 


>  <MOLENAME>  (133) 
RIBOFLAVIN

>  <therap>  (133) 
Vitamin B2; Vitamin cofactor; LD50(rat) 560 mg/kg ip

>  <ref>  (133) 
Helv Chim Acta 35:457 (1952); Tet. Lett.,1969:3489; JACS 98:830 (1976); Experientia 36:149 (1980)

>  <cas#>  (133) 
83-88-5

>  <source>  (133) 
retina, whey and urine 

>  <status>  (133) 
USP, INN, BAN, JAN

>  <tradename>  (133) 
FLAVAXIN

>  <SMILES>  (133) 
Cc1cc2c(cc1C)n(C[C@@H](O)[C@@H](O)[C@@H](O)CO)c1nc(=O)[nH]c(=O)c-1n2

>  <standardized_failed>  (133) 
False

$$$$

     RDKit          2D

 17 16  0  0  0  0  0  0  0  0999 V2000
    5.8542   -3.1792    0.0000 C   0  0  0  0  0  0  0  0  0  0  0  0
    5.1417   -3.5917    0.0000 C   0  0  0  0  0  0  0  0  0  0  0  0
    7.2875   -3.1750    0.0000 N   0  0  0  0  0  0  0  0  0  0  0  0
    6.5750   -3.5875    0.0000 C   0  0  0  0  0  0  0  0  0  0  0  0
    4.4292   -3.1792    0.0000 C   0  0  0  0  0  0  0  0  0  0  0  0
    5.8542   -2.3542    0.0000 O   0  0  0  0  0  0  0  0  0  0  0  0
    8.0042   -3.5792    0.0000 C   0  0  0  0  0  0  0  0  0  0  0  0
    3.7167   -3.6000    0.0000 C   0  0  0  0  0  0  0  0  0  0  0  0
    3.0042   -3.1875    0.0000 Cl  0  0  0  0  0  0  0  0  0  0  0  0
    7.8875   -1.7417    0.0000 Cl  0  0  0  0  0  0  0  0  0  0  0  0
    5.1417   -4.4250    0.0000 C   0  0  0  0  0  0  0  0  0  0  0  0
    4.4292   -4.8375    0.0000 C   0  0  0  0  0  0  0  0  0  0  0  0
    6.5750   -4.4125    0.0000 C   0  0  0  0  0  0  0  0  0  0  0  0
    8.0042   -4.4042    0.0000 C   0  0  0  0  0  0  0  0  0  0  0  0
    8.7167   -3.1667    0.0000 C   0  0  0  0  0  0  0  0  0  0  0  0
    8.7167   -3.9917    0.0000 C   0  0  0  0  0  0  0  0  0  0  0  0
    3.7167   -4.4250    0.0000 C   0  0  0  0  0  0  0  0  0  0  0  0
  2  1  1  0
  3  4  1  0
  4  1  1  0
  5  2  2  0
  6  1  2  0
  7  3  1  0
  8  5  1  0
  9  8  1  0
 11  2  1  0
 12 11  2  0
 13  4  1  0
 14  7  1  0
 15  7  1  0
 16  7  1  0
 17 12  1  0
 17  8  2  0
M  END
>  <ID>  (134) 


>  <MOLENAME>  (134) 
BUPROPION

>  <therap>  (134) 
antidepressant

>  <ref>  (134) 
J Clin Psychiatry 56:395 (1995); Expert Opin Pharmacother 4:533 (2003)

>  <cas#>  (134) 
31677-93-7, 34911-55-2 [bupropion]

>  <source>  (134) 
synthetic

>  <status>  (134) 
USP, INN, BAN

>  <tradename>  (134) 
WELLBUTRIN

>  <SMILES>  (134) 
CC(NC(C)(C)C)C(=O)c1cc(Cl)ccc1

>  <standardized_failed>  (134) 
False

$$$$

     RDKit          2D

 21 21  0  0  0  0  0  0  0  0999 V2000
    4.1792  -18.1875    0.0000 C   0  0  0  0  0  0  0  0  0  0  0  0
    3.4667  -18.6000    0.0000 N   0  0  0  0  0  0  0  0  0  0  0  0
    5.6042  -18.1792    0.0000 C   0  0  0  0  0  0  0  0  0  0  0  0
    2.7542  -18.1917    0.0000 C   0  0  0  0  0  0  0  0  0  0  0  0
    2.7500  -17.3667    0.0000 C   0  0  0  0  0  0  0  0  0  0  0  0
    4.8917  -18.5917    0.0000 C   0  0  0  0  0  0  0  0  0  0  0  0
    6.3167  -18.5917    0.0000 C   0  0  0  0  0  0  0  0  0  0  0  0
    4.1750  -17.3625    0.0000 O   0  0  0  0  0  0  0  0  0  0  0  0
    2.0417  -18.6042    0.0000 C   0  0  0  0  0  0  0  0  0  0  0  0
    3.4625  -16.9500    0.0000 O   0  0  0  0  0  0  0  0  0  0  0  0
    6.3167  -19.4167    0.0000 O   0  0  0  0  0  0  0  0  0  0  0  0
    4.8875  -19.4167    0.0000 N   0  0  0  0  0  0  0  0  0  0  0  0
    2.0292  -16.9542    0.0000 O   0  0  0  0  0  0  0  0  0  0  0  0
    7.0292  -18.1792    0.0000 O   0  0  0  0  0  0  0  0  0  0  0  0
    1.3292  -18.1917    0.0000 C   0  0  0  0  0  0  0  0  0  0  0  0
    2.0292  -16.1292    0.0000 C   0  0  0  0  0  0  0  0  0  0  0  0
    1.3292  -17.3667    0.0000 C   0  0  0  0  0  0  0  0  0  0  0  0
    0.6125  -18.6042    0.0000 C   0  0  0  0  0  0  0  0  0  0  0  0
    0.6125  -16.9542    0.0000 C   0  0  0  0  0  0  0  0  0  0  0  0
   -0.1000  -18.1917    0.0000 C   0  0  0  0  0  0  0  0  0  0  0  0
   -0.1000  -17.3667    0.0000 C   0  0  0  0  0  0  0  0  0  0  0  0
  2  1  1  0
  3  6  1  0
  4  2  1  0
  4  5  1  0
  6  1  1  0
  7  3  1  0
  8  1  2  0
  4  9  1  1
 10  5  2  0
 11  7  2  0
  6 12  1  6
 13  5  1  0
 14  7  1  0
 15  9  1  0
 16 13  1  0
 17 15  2  0
 18 15  1  0
 19 17  1  0
 20 18  2  0
 21 20  1  0
 21 19  2  0
M  END
>  <ID>  (135) 


>  <MOLENAME>  (135) 
ASPARTAME

>  <therap>  (135) 
sweetener

>  <ref>  (135) 
JACS 91:2684 (1969); Science 170:81 (1970)

>  <cas#>  (135) 
22839-47-0

>  <source>  (135) 
synthetic; APM, SC-18862

>  <status>  (135) 
USAN, NF, INN, BAN

>  <tradename>  (135) 
NUTRASWEET

>  <SMILES>  (135) 
COC(=O)[C@H](Cc1ccccc1)NC(=O)[C@@H](N)CC(=O)O

>  <standardized_failed>  (135) 
False

$$$$

     RDKit          2D

 29 29  0  0  0  0  0  0  0  0999 V2000
    8.6542   -1.2125    0.0000 C   0  0  0  0  0  0  0  0  0  0  0  0
    7.8292   -1.2125    0.0000 C   0  0  0  0  0  0  0  0  0  0  0  0
    8.9125   -0.4250    0.0000 C   0  0  0  0  0  0  0  0  0  0  0  0
    7.5792   -0.4250    0.0000 C   0  0  0  0  0  0  0  0  0  0  0  0
    8.2417    0.0583    0.0000 O   0  0  0  0  0  0  0  0  0  0  0  0
    6.8000   -0.1750    0.0000 C   0  0  0  0  0  0  0  0  0  0  0  0
    9.7000   -0.1750    0.0000 O   0  0  0  0  0  0  0  0  0  0  0  0
    4.9875    0.2375    0.0000 C   0  0  0  0  0  0  0  0  0  0  0  0
    9.1417   -1.8792    0.0000 O   0  0  0  0  0  0  0  0  0  0  0  0
    7.3500   -1.8792    0.0000 O   0  0  0  0  0  0  0  0  0  0  0  0
    5.4000   -0.4750    0.0000 O   0  0  0  0  0  0  0  0  0  0  0  0
    6.1792   -0.7250    0.0000 C   0  0  0  0  0  0  0  0  0  0  0  0
    5.3917    0.9583    0.0000 O   0  0  0  0  0  0  0  0  0  0  0  0
    6.6250    0.6333    0.0000 O   0  0  0  0  0  0  0  0  0  0  0  0
    4.1667    0.2375    0.0000 C   0  0  0  0  0  0  0  0  0  0  0  0
    3.7542    0.9500    0.0000 C   0  0  0  0  0  0  0  0  0  0  0  0
   -1.1708   -3.3250    0.0000 C   0  0  0  0  0  0  0  0  0  0  0  0
   -0.7583   -2.6125    0.0000 C   0  0  0  0  0  0  0  0  0  0  0  0
    1.2917    0.9500    0.0000 C   0  0  0  0  0  0  0  0  0  0  0  0
    1.7042    0.2375    0.0000 C   0  0  0  0  0  0  0  0  0  0  0  0
    1.2917   -0.4750    0.0000 C   0  0  0  0  0  0  0  0  0  0  0  0
    1.7042   -1.1875    0.0000 C   0  0  0  0  0  0  0  0  0  0  0  0
    1.3000   -1.9000    0.0000 C   0  0  0  0  0  0  0  0  0  0  0  0
    0.4792   -1.9000    0.0000 C   0  0  0  0  0  0  0  0  0  0  0  0
    0.0667   -2.6125    0.0000 C   0  0  0  0  0  0  0  0  0  0  0  0
    2.9292    0.9500    0.0000 C   0  0  0  0  0  0  0  0  0  0  0  0
    2.5167    1.6625    0.0000 C   0  0  0  0  0  0  0  0  0  0  0  0
    1.7000    1.6625    0.0000 C   0  0  0  0  0  0  0  0  0  0  0  0
   -1.9875   -3.3250    0.0000 C   0  0  0  0  0  0  0  0  0  0  0  0
  2  1  2  0
  3  1  1  0
  4  2  1  0
  5  3  1  0
  4  6  1  1
  7  3  2  0
  8 11  1  0
  9  1  1  0
 10  2  1  0
 11 12  1  0
 12  6  1  0
 13  8  2  0
 14  6  1  0
 15  8  1  0
 16 15  1  0
 17 18  1  0
 18 25  1  0
 19 28  1  0
 20 19  1  0
 21 20  1  0
 22 21  1  0
 23 22  1  0
 24 23  1  0
 25 24  1  0
 26 16  1  0
 27 26  1  0
 28 27  1  0
 29 17  1  0
  4  5  1  0
M  END
>  <ID>  (136) 


>  <MOLENAME>  (136) 
ASCORBYL PALMITATE

>  <therap>  (136) 
antioxidant

>  <ref>  (136) 
J Am Oil Chem Soc 51:321 (1974)

>  <cas#>  (136) 
137-66-6

>  <source>  (136) 
semisynthetic

>  <status>  (136) 
USAN, NF

>  <tradename>  (136) 
EMPROVE

>  <SMILES>  (136) 
CCCCCCCCCCCCCCCC(=O)OCC(O)[C@H]1OC(=O)C(O)=C1O

>  <standardized_failed>  (136) 
False

$$$$

     RDKit          2D

 13 12  0  0  0  0  0  0  0  0999 V2000
    5.0167   -6.1958    0.0000 C   0  0  0  0  0  0  0  0  0  0  0  0
    7.1542   -4.9542    0.0000 C   0  0  0  0  0  0  0  0  0  0  0  0
    5.7292   -5.7792    0.0000 C   0  0  0  0  0  0  0  0  0  0  0  0
    5.7292   -4.9542    0.0000 C   0  0  0  0  0  0  0  0  0  0  0  0
    6.4417   -6.1917    0.0000 C   0  0  0  0  0  0  0  0  0  0  0  0
    6.4417   -4.5417    0.0000 C   0  0  0  0  0  0  0  0  0  0  0  0
    7.1542   -5.7792    0.0000 C   0  0  0  0  0  0  0  0  0  0  0  0
    4.3000   -6.6042    0.0000 O   0  0  0  0  0  0  0  0  0  0  0  0
    7.3667   -4.1542    0.0000 O   0  0  0  0  0  0  0  0  0  0  0  0
    9.7750   -5.5875    0.0000 O   0  0  0  0  0  0  0  0  0  0  0  0
    5.0167   -7.0208    0.0000 C   0  0  0  0  0  0  0  0  0  0  0  0
    4.3042   -5.7833    0.0000 C   0  0  0  0  0  0  0  0  0  0  0  0
    7.9792   -4.9542    0.0000 C   0  0  0  0  0  0  0  0  0  0  0  0
  2  7  1  0
  3  1  1  0
  4  3  1  0
  5  3  1  0
  6  4  1  0
  7  5  1  0
  8  1  1  0
  9  2  1  0
 11  1  1  0
 12  1  1  0
 13  2  1  0
  6  2  1  0
M  END
>  <ID>  (137) 


>  <MOLENAME>  (137) 
TERPENE HYDRATE

>  <therap>  (137) 
expectorant

>  <ref>  (137) 
Ann 180:71 (1876); 230:225 (1885); J Chem Soc 127:1632 (1925)

>  <cas#>  (137) 
2451-01-6

>  <source>  (137) 
Pinus spp

>  <status>  (137) 
USP, INN

>  <tradename>  (137) 
nan

>  <SMILES>  (137) 
CC1(O)CCC(C(C)(C)O)CC1

>  <standardized_failed>  (137) 
False

$$$$

     RDKit          2D

  9  9  0  0  0  0  0  0  0  0999 V2000
    7.2792   -4.6667    0.0000 C   0  0  0  0  0  0  0  0  0  0  0  0
    6.5667   -5.0875    0.0000 C   0  0  0  0  0  0  0  0  0  0  0  0
    7.2792   -3.8417    0.0000 O   0  0  0  0  0  0  0  0  0  0  0  0
    5.8542   -6.3292    0.0000 N   0  0  0  0  0  0  0  0  0  0  0  0
    8.0000   -5.0792    0.0000 N   0  0  0  0  0  0  0  0  0  0  0  0
    6.5667   -5.9167    0.0000 C   0  0  0  0  0  0  0  0  0  0  0  0
    5.8542   -4.6750    0.0000 C   0  0  0  0  0  0  0  0  0  0  0  0
    5.1417   -5.9167    0.0000 C   0  0  0  0  0  0  0  0  0  0  0  0
    5.1417   -5.0875    0.0000 C   0  0  0  0  0  0  0  0  0  0  0  0
  2  1  1  0
  3  1  2  0
  4  6  1  0
  5  1  1  0
  6  2  2  0
  7  2  1  0
  8  9  1  0
  9  7  2  0
  8  4  2  0
M  END
>  <ID>  (138) 


>  <MOLENAME>  (138) 
NIACINAMIDE

>  <therap>  (138) 
Vitamin B3; enzyme cofactor; anti-pellagra

>  <ref>  (138) 
Cancer Res. (2011), 71(13), 4473-4483; Lett. Drug Des. Discovery (2004), 1(1), 58-65; Chim. Oggi (1996), 14(6), 55-57

>  <cas#>  (138) 
98-92-0

>  <source>  (138) 
widespread in plants, yeasts, fungi

>  <status>  (138) 
USP, INN, JAN

>  <tradename>  (138) 
nan

>  <SMILES>  (138) 
NC(=O)c1cnccc1

>  <standardized_failed>  (138) 
False

$$$$

     RDKit          2D

 20 20  0  0  0  0  0  0  0  0999 V2000
    5.8292   -6.5875    0.0000 C   0  0  0  0  0  0  0  0  0  0  0  0
    6.4792   -6.2125    0.0000 C   0  0  0  0  0  0  0  0  0  0  0  0
    6.4792   -5.4625    0.0000 O   0  0  0  0  0  0  0  0  0  0  0  0
    6.4792   -3.2125    0.0000 N   0  0  0  0  0  0  0  0  0  0  0  0
    5.8292   -7.3417    0.0000 C   0  0  0  0  0  0  0  0  0  0  0  0
    7.1292   -4.3375    0.0000 C   0  0  0  0  0  0  0  0  0  0  0  0
    7.1292   -5.0875    0.0000 C   0  0  0  0  0  0  0  0  0  0  0  0
    6.4792   -3.9625    0.0000 C   0  0  0  0  0  0  0  0  0  0  0  0
    4.9542   -4.5917    0.0000 Cl  0  0  0  0  0  0  0  0  0  0  0  0
    7.7792   -3.9625    0.0000 O   0  0  0  0  0  0  0  0  0  0  0  0
    5.8292   -2.8375    0.0000 C   0  0  0  0  0  0  0  0  0  0  0  0
    7.1417   -7.3417    0.0000 C   0  0  0  0  0  0  0  0  0  0  0  0
    7.1417   -6.5875    0.0000 C   0  0  0  0  0  0  0  0  0  0  0  0
    5.1792   -6.2125    0.0000 C   0  0  0  0  0  0  0  0  0  0  0  0
    6.4792   -7.7167    0.0000 C   0  0  0  0  0  0  0  0  0  0  0  0
    5.1792   -7.7167    0.0000 C   0  0  0  0  0  0  0  0  0  0  0  0
    5.8292   -2.0875    0.0000 C   0  0  0  0  0  0  0  0  0  0  0  0
    5.1792   -3.2125    0.0000 C   0  0  0  0  0  0  0  0  0  0  0  0
    4.5292   -6.5875    0.0000 C   0  0  0  0  0  0  0  0  0  0  0  0
    4.5292   -7.3417    0.0000 C   0  0  0  0  0  0  0  0  0  0  0  0
  2  1  2  0
  3  2  1  0
  4  8  1  0
  5  1  1  0
  6  7  1  0
  7  3  1  0
  8  6  1  0
 10  6  1  0
 11  4  1  0
 12 15  1  0
 13  2  1  0
 14  1  1  0
 15  5  2  0
 16  5  1  0
 17 11  1  0
 18 11  1  0
 19 14  2  0
 20 19  1  0
 12 13  2  0
 20 16  2  0
M  END
>  <ID>  (139) 


>  <MOLENAME>  (139) 
PROPRANOLOL HYDROCHLORIDE (+/-)

>  <therap>  (139) 
antihypertensive, antianginal, antiarrhythmic

>  <ref>  (139) 
Eur J Med Chem 9:563 (1974); Drugs 37 Suppl 2:42 (1989) 

>  <cas#>  (139) 
318-98-9, 525-66-6 [propranolol]

>  <source>  (139) 
synthetic; AY-64043, ICI-45520

>  <status>  (139) 
USP, INN, BAN, JAN

>  <tradename>  (139) 
INDERAL

>  <SMILES>  (139) 
CC(C)NCC(O)COc1c2ccccc2ccc1

>  <standardized_failed>  (139) 
False

$$$$

     RDKit          2D

 24 26  0  0  0  0  0  0  0  0999 V2000
    2.1792   -1.2500    0.0000 C   0  0  0  0  0  0  0  0  0  0  0  0
    1.8292   -2.4667    0.0000 C   0  0  0  0  0  0  0  0  0  0  0  0
    3.2667   -1.9042    0.0000 N   0  0  0  0  0  0  0  0  0  0  0  0
    1.2750   -1.5000    0.0000 O   0  0  0  0  0  0  0  0  0  0  0  0
    2.9625   -2.8375    0.0000 C   0  0  0  0  0  0  0  0  0  0  0  0
    3.1917   -0.9292    0.0000 C   0  0  0  0  0  0  0  0  0  0  0  0
    6.2125   -2.1042    0.0000 C   0  0  0  0  0  0  0  0  0  0  0  0
    6.6250   -2.8292    0.0000 C   0  0  0  0  0  0  0  0  0  0  0  0
    3.6750   -2.8042    0.0000 C   0  0  0  0  0  0  0  0  0  0  0  0
    3.9292   -1.2542    0.0000 C   0  0  0  0  0  0  0  0  0  0  0  0
    4.5292   -2.0917    0.0000 C   0  0  0  0  0  0  0  0  0  0  0  0
    5.5000   -2.0792    0.0000 O   0  0  0  0  0  0  0  0  0  0  0  0
    6.6250   -1.4042    0.0000 O   0  0  0  0  0  0  0  0  0  0  0  0
    7.4500   -2.8292    0.0000 C   0  0  0  0  0  0  0  0  0  0  0  0
    5.3292   -0.8125    0.0000 Br  0  0  0  0  0  0  0  0  0  0  0  0
    2.3667   -1.9042    0.0000 C   0  0  0  0  0  0  0  0  0  0  0  0
    3.9542   -1.9375    0.0000 C   0  0  0  0  0  0  0  0  0  0  0  0
    6.2125   -3.5167    0.0000 C   0  0  0  0  0  0  0  0  0  0  0  0
    5.3875   -3.5167    0.0000 O   0  0  0  0  0  0  0  0  0  0  0  0
    7.8625   -3.5292    0.0000 C   0  0  0  0  0  0  0  0  0  0  0  0
    7.8625   -2.1167    0.0000 C   0  0  0  0  0  0  0  0  0  0  0  0
    8.6792   -3.5292    0.0000 C   0  0  0  0  0  0  0  0  0  0  0  0
    8.6875   -2.1167    0.0000 C   0  0  0  0  0  0  0  0  0  0  0  0
    9.0875   -2.8167    0.0000 C   0  0  0  0  0  0  0  0  0  0  0  0
  2  1  1  0
  3  6  1  0
  4  1  1  0
  5  2  1  0
  6  1  1  0
  7 12  1  0
  8  7  1  0
  9  5  1  0
 10  6  1  0
 11 10  1  0
 12 11  1  0
 13  7  2  0
 14  8  1  0
 16  3  1  0
 17  3  1  0
  8 18  1  6
 19 18  1  0
 20 14  2  0
 21 14  1  0
 22 20  1  0
 23 21  2  0
 24 22  2  0
  2  4  1  0
  5  3  1  0
  9 11  1  0
 23 24  1  0
M  CHG  2   3   1  15  -1
M  END
>  <ID>  (140) 


>  <MOLENAME>  (140) 
METHSCOPOLAMINE BROMIDE

>  <therap>  (140) 
anticholinergic

>  <ref>  (140) 
Arch. Int. Pharmacodyn. Ther. (1991), 314, 90-104; J. Pharmacol. Exp. Ther. (1954), 110, 188-204; J. Am. Pharm. Assoc. (1954), 43, 35-8

>  <cas#>  (140) 
155-41-9

>  <source>  (140) 
semisynthetic

>  <status>  (140) 
USP-XXII, BAN, JAN

>  <tradename>  (140) 
PAMINE

>  <SMILES>  (140) 
C[N+]1(C)C2CC(OC(=O)[C@@H](CO)c3ccccc3)CC1C1OC12

>  <standardized_failed>  (140) 
False

$$$$

     RDKit          2D

 13 12  0  0  0  0  0  0  0  0999 V2000
    5.3875   -3.7333    0.0000 N   0  0  0  0  0  0  0  0  0  0  0  0
    4.6750   -4.1500    0.0000 C   0  0  0  0  0  0  0  0  0  0  0  0
    3.9583   -3.7375    0.0000 C   0  0  0  0  0  0  0  0  0  0  0  0
    8.0542   -3.4000    0.0000 Cl  0  0  0  0  0  0  0  0  0  0  0  0
    3.2458   -4.1500    0.0000 C   0  0  0  0  0  0  0  0  0  0  0  0
    2.5333   -3.7417    0.0000 O   0  0  0  0  0  0  0  0  0  0  0  0
    6.1042   -4.1417    0.0000 C   0  0  0  0  0  0  0  0  0  0  0  0
    5.9667   -3.1417    0.0000 C   0  0  0  0  0  0  0  0  0  0  0  0
    4.9667   -3.0167    0.0000 C   0  0  0  0  0  0  0  0  0  0  0  0
    4.6750   -4.9792    0.0000 C   0  0  0  0  0  0  0  0  0  0  0  0
    3.9583   -5.3917    0.0000 C   0  0  0  0  0  0  0  0  0  0  0  0
    3.2458   -4.9792    0.0000 C   0  0  0  0  0  0  0  0  0  0  0  0
    6.8167   -3.7292    0.0000 C   0  0  0  0  0  0  0  0  0  0  0  0
  2  1  1  0
  3  2  2  0
  5  3  1  0
  6  5  1  0
  7  1  1  0
  8  1  1  0
  9  1  1  0
 10  2  1  0
 11 10  2  0
 12  5  2  0
 13  7  1  0
 11 12  1  0
M  CHG  2   1   1   4  -1
M  END
>  <ID>  (141) 


>  <MOLENAME>  (141) 
EDROPHONIUM CHLORIDE

>  <therap>  (141) 
acetylcholinesterase inhibitor

>  <ref>  (141) 
Survey Anesthesiology 12:377 (1968); Acta Physiol Scand 141:289 (1991)

>  <cas#>  (141) 
116-38-1, 312-48-1 [edrophonium]

>  <source>  (141) 
synthetic

>  <status>  (141) 
USP, INN, BAN, JAN

>  <tradename>  (141) 
ENLON

>  <SMILES>  (141) 
CC[N+](C)(C)c1cc(O)ccc1

>  <standardized_failed>  (141) 
False

$$$$

     RDKit          2D

 30 32  0  0  0  0  0  0  0  0999 V2000
    1.7917   -1.6375    0.0000 C   0  0  0  0  0  0  0  0  0  0  0  0
    3.0667   -1.2167    0.0000 C   0  0  0  0  0  0  0  0  0  0  0  0
    2.5792   -1.8917    0.0000 C   0  0  0  0  0  0  0  0  0  0  0  0
    2.5792   -0.5542    0.0000 C   0  0  0  0  0  0  0  0  0  0  0  0
    1.7917   -0.8125    0.0000 C   0  0  0  0  0  0  0  0  0  0  0  0
    1.0792   -0.4000    0.0000 C   0  0  0  0  0  0  0  0  0  0  0  0
    2.9125    0.1958    0.0000 C   0  0  0  0  0  0  0  0  0  0  0  0
    3.8792   -1.1292    0.0000 C   0  0  0  0  0  0  0  0  0  0  0  0
    1.0792   -2.0542    0.0000 C   0  0  0  0  0  0  0  0  0  0  0  0
    2.8375   -2.6750    0.0000 O   0  0  0  0  0  0  0  0  0  0  0  0
    0.3667   -1.6417    0.0000 C   0  0  0  0  0  0  0  0  0  0  0  0
    4.2167   -0.3792    0.0000 C   0  0  0  0  0  0  0  0  0  0  0  0
    0.3667   -0.8125    0.0000 C   0  0  0  0  0  0  0  0  0  0  0  0
    3.7250    0.2833    0.0000 C   0  0  0  0  0  0  0  0  0  0  0  0
   -2.3958   -2.3750    0.0000 N   0  0  0  0  0  0  0  0  0  0  0  0
    6.9750   -1.1167    0.0000 N   0  0  0  0  0  0  0  0  0  0  0  0
    5.0125   -0.1667    0.0000 O   0  0  0  0  0  0  0  0  0  0  0  0
   -0.2208   -2.2167    0.0000 O   0  0  0  0  0  0  0  0  0  0  0  0
    5.5917   -0.7500    0.0000 C   0  0  0  0  0  0  0  0  0  0  0  0
   -1.0125   -2.0042    0.0000 C   0  0  0  0  0  0  0  0  0  0  0  0
    6.3917   -0.5375    0.0000 C   0  0  0  0  0  0  0  0  0  0  0  0
   -1.5958   -2.5875    0.0000 C   0  0  0  0  0  0  0  0  0  0  0  0
    7.7667   -0.9042    0.0000 C   0  0  0  0  0  0  0  0  0  0  0  0
   -2.6083   -1.5750    0.0000 C   0  0  0  0  0  0  0  0  0  0  0  0
   -2.9750   -2.9542    0.0000 C   0  0  0  0  0  0  0  0  0  0  0  0
    6.7625   -1.9125    0.0000 C   0  0  0  0  0  0  0  0  0  0  0  0
   -2.0250   -0.9917    0.0000 C   0  0  0  0  0  0  0  0  0  0  0  0
   -2.7625   -3.7542    0.0000 C   0  0  0  0  0  0  0  0  0  0  0  0
    8.3542   -1.4792    0.0000 C   0  0  0  0  0  0  0  0  0  0  0  0
    5.9625   -2.1250    0.0000 C   0  0  0  0  0  0  0  0  0  0  0  0
  2  3  1  0
  3  1  1  0
  4  5  1  0
  5  1  2  0
  6  5  1  0
  7  4  2  0
  8  2  2  0
  9  1  1  0
 10  3  2  0
 11  9  2  0
 12  8  1  0
 13 11  1  0
 14  7  1  0
 15 22  1  0
 16 21  1  0
 17 12  1  0
 18 11  1  0
 19 17  1  0
 20 18  1  0
 21 19  1  0
 22 20  1  0
 23 16  1  0
 24 15  1  0
 25 15  1  0
 26 16  1  0
 27 24  1  0
 28 25  1  0
 29 23  1  0
 30 26  1  0
  2  4  1  0
 13  6  2  0
 14 12  2  0
M  END
>  <ID>  (142) 


>  <MOLENAME>  (142) 
TILORONE

>  <therap>  (142) 
antiviral

>  <ref>  (142) 
Science 169:1213 (1970); Proc Soc Exp Biol Med 137:357 (1971)

>  <cas#>  (142) 
27591-69-1, 27591-97-5 [tilorone]

>  <source>  (142) 
synthetic

>  <status>  (142) 
USAN, INN

>  <tradename>  (142) 
nan

>  <SMILES>  (142) 
CCN(CC)CCOc1cc2c(cc1)-c1ccc(OCCN(CC)CC)cc1C2=O

>  <standardized_failed>  (142) 
False

$$$$

     RDKit          2D

 23 24  0  0  0  0  0  0  0  0999 V2000
    5.7292   -3.1375    0.0000 N   0  0  0  0  0  0  0  0  0  0  0  0
    6.5292   -3.0000    0.0000 C   0  0  0  0  0  0  0  0  0  0  0  0
    5.2375   -2.6500    0.0000 C   0  0  0  0  0  0  0  0  0  0  0  0
    6.9875   -3.7042    0.0000 C   0  0  0  0  0  0  0  0  0  0  0  0
    6.9167   -2.2417    0.0000 C   0  0  0  0  0  0  0  0  0  0  0  0
    5.2292   -1.8167    0.0000 C   0  0  0  0  0  0  0  0  0  0  0  0
    6.5500   -1.4667    0.0000 C   0  0  0  0  0  0  0  0  0  0  0  0
    5.7500   -1.3167    0.0000 C   0  0  0  0  0  0  0  0  0  0  0  0
    5.4875   -3.9250    0.0000 C   0  0  0  0  0  0  0  0  0  0  0  0
    7.7542   -2.2042    0.0000 C   0  0  0  0  0  0  0  0  0  0  0  0
    7.8292   -3.6625    0.0000 C   0  0  0  0  0  0  0  0  0  0  0  0
    4.6792   -4.1042    0.0000 C   0  0  0  0  0  0  0  0  0  0  0  0
    3.6292   -5.0750    0.0000 N   0  0  0  0  0  0  0  0  0  0  0  0
    8.2125   -2.9042    0.0000 C   0  0  0  0  0  0  0  0  0  0  0  0
    8.2792   -4.3542    0.0000 Cl  0  0  0  0  0  0  0  0  0  0  0  0
    6.4875   -5.1917    0.0000 Cl  0  0  0  0  0  0  0  0  0  0  0  0
    4.5167   -3.0625    0.0000 C   0  0  0  0  0  0  0  0  0  0  0  0
    4.4292   -4.8917    0.0000 C   0  0  0  0  0  0  0  0  0  0  0  0
    4.5167   -1.4042    0.0000 C   0  0  0  0  0  0  0  0  0  0  0  0
    3.0667   -4.4667    0.0000 C   0  0  0  0  0  0  0  0  0  0  0  0
    3.3792   -5.8542    0.0000 C   0  0  0  0  0  0  0  0  0  0  0  0
    3.8042   -2.6500    0.0000 C   0  0  0  0  0  0  0  0  0  0  0  0
    3.8042   -1.8250    0.0000 C   0  0  0  0  0  0  0  0  0  0  0  0
  2  1  1  0
  3  1  1  0
  4  2  2  0
  5  2  1  0
  6  3  2  0
  7  5  1  0
  8  6  1  0
  9  1  1  0
 10  5  2  0
 11  4  1  0
 12  9  1  0
 13 18  1  0
 14 10  1  0
 15 11  1  0
 17  3  1  0
 18 12  1  0
 19  6  1  0
 20 13  1  0
 21 13  1  0
 22 17  2  0
 23 22  1  0
  8  7  1  0
 23 19  2  0
 14 11  2  0
M  END
>  <ID>  (143) 


>  <MOLENAME>  (143) 
CLOMIPRAMINE HYDROCHLORIDE

>  <therap>  (143) 
antidepressant

>  <ref>  (143) 
Clin Pharm 9:165 (1990)

>  <cas#>  (143) 
17321-77-6, 303-49-1 [clomipramine]

>  <source>  (143) 
synthetic; G-34586

>  <status>  (143) 
USP, INN, BAN, JAN

>  <tradename>  (143) 
ANAFRANIL

>  <SMILES>  (143) 
CN(C)CCCN1c2c(cccc2)CCc2ccc(Cl)cc21

>  <standardized_failed>  (143) 
False

$$$$

     RDKit          2D

 27 30  0  0  0  0  0  0  0  0999 V2000
    6.6625   -1.7708    0.0000 C   0  0  0  0  0  0  0  0  0  0  0  0
    6.2250   -2.2208    0.0000 C   0  0  0  0  0  0  0  0  0  0  0  0
    7.3500   -2.0333    0.0000 C   0  0  0  0  0  0  0  0  0  0  0  0
    6.2125   -2.9458    0.0000 O   0  0  0  0  0  0  0  0  0  0  0  0
    6.8875   -3.2083    0.0000 C   0  0  0  0  0  0  0  0  0  0  0  0
    6.0625   -1.3083    0.0000 O   0  0  0  0  0  0  0  0  0  0  0  0
    5.4750   -2.2208    0.0000 O   0  0  0  0  0  0  0  0  0  0  0  0
    6.5500   -1.0583    0.0000 C   0  0  0  0  0  0  0  0  0  0  0  0
    4.8375   -1.7833    0.0000 C   0  0  0  0  0  0  0  0  0  0  0  0
    7.4625   -2.7583    0.0000 C   0  0  0  0  0  0  0  0  0  0  0  0
    7.0000   -3.9333    0.0000 O   0  0  0  0  0  0  0  0  0  0  0  0
    5.5625   -1.6833    0.0000 O   0  0  0  0  0  0  0  0  0  0  0  0
    7.9125   -1.5708    0.0000 C   0  0  0  0  0  0  0  0  0  0  0  0
    6.4250   -4.3917    0.0000 C   0  0  0  0  0  0  0  0  0  0  0  0
    5.7500   -0.7083    0.0000 C   0  0  0  0  0  0  0  0  0  0  0  0
    4.4917   -4.3208    0.0000 C   0  0  0  0  0  0  0  0  0  0  0  0
    7.1125   -0.5833    0.0000 C   0  0  0  0  0  0  0  0  0  0  0  0
    7.8000   -0.8458    0.0000 C   0  0  0  0  0  0  0  0  0  0  0  0
    5.0375   -1.0333    0.0000 C   0  0  0  0  0  0  0  0  0  0  0  0
    6.5417   -5.1167    0.0000 O   0  0  0  0  0  0  0  0  0  0  0  0
    4.3750   -3.6042    0.0000 O   0  0  0  0  0  0  0  0  0  0  0  0
    5.7417   -4.1292    0.0000 C   0  0  0  0  0  0  0  0  0  0  0  0
    5.1750   -4.5875    0.0000 C   0  0  0  0  0  0  0  0  0  0  0  0
    3.9250   -4.7792    0.0000 O   0  0  0  0  0  0  0  0  0  0  0  0
    4.0875   -2.1208    0.0000 C   0  0  0  0  0  0  0  0  0  0  0  0
    8.1625   -2.9458    0.0000 C   0  0  0  0  0  0  0  0  0  0  0  0
    7.1125    0.1417    0.0000 C   0  0  0  0  0  0  0  0  0  0  0  0
  2  1  1  0
  3  1  1  0
  2  4  1  6
  5 10  1  0
  1  6  1  6
  7  2  1  0
  8  1  1  0
  9  7  1  0
 10  3  1  0
  5 11  1  6
 12  6  1  0
  3 13  1  1
 14 11  1  0
  8 15  1  1
 16 23  1  0
 17  8  1  0
 18 13  1  0
 19 15  1  0
 20 14  2  0
 21 16  2  0
 22 14  1  0
 23 22  1  0
 24 16  1  0
  9 25  1  1
 10 26  1  1
 17 27  1  6
  9 12  1  0
  5  4  1  0
 17 18  1  0
  9 19  1  0
M  END
>  <ID>  (144) 


>  <MOLENAME>  (144) 
ARTESUNATE

>  <therap>  (144) 
antimalarial

>  <ref>  (144) 
J Med Chem 30:2147 (1987); Lancet 355:352 (2000)

>  <cas#>  (144) 
182824-33-5

>  <source>  (144) 
semisynthetic

>  <status>  (144) 
USAN, INN, BAN

>  <tradename>  (144) 
ARSUMAX

>  <SMILES>  (144) 
C[C@@H]1CC[C@H]2[C@@H](C)[C@H](OC(=O)CCC(=O)O)O[C@@H]3O[C@]4(C)CC[C@@H]1[C@@]23OO4

>  <standardized_failed>  (144) 
False

$$$$

     RDKit          2D

 12 11  0  0  0  0  0  0  0  0999 V2000
    7.7625   -4.4542    0.0000 C   0  0  0  0  0  0  0  0  0  0  0  0
    7.7625   -5.2792    0.0000 N   0  0  0  0  0  0  0  0  0  0  0  0
    8.4708   -4.0417    0.0000 N   0  0  0  0  0  0  0  0  0  0  0  0
    9.1833   -5.2792    0.0000 N   0  0  0  0  0  0  0  0  0  0  0  0
    9.1833   -4.4542    0.0000 C   0  0  0  0  0  0  0  0  0  0  0  0
    8.4708   -5.6917    0.0000 C   0  0  0  0  0  0  0  0  0  0  0  0
    7.0458   -4.0458    0.0000 O   0  0  0  0  0  0  0  0  0  0  0  0
    9.9000   -4.0458    0.0000 O   0  0  0  0  0  0  0  0  0  0  0  0
    8.4708   -6.5167    0.0000 O   0  0  0  0  0  0  0  0  0  0  0  0
    7.0417   -5.6917    0.0000 Cl  0  0  0  0  0  0  0  0  0  0  0  0
    8.4667   -3.2167    0.0000 Cl  0  0  0  0  0  0  0  0  0  0  0  0
   10.2708   -5.8042    0.0000 K   0  0  0  0  0 15  0  0  0  0  0  0
  2  1  1  0
  3  1  1  0
  4  5  1  0
  5  3  1  0
  6  2  1  0
  7  1  2  0
  8  5  2  0
  9  6  2  0
 10  2  1  0
 11  3  1  0
  4  6  1  0
M  CHG  2   4  -1  12   1
M  END
>  <ID>  (145) 


>  <MOLENAME>  (145) 
TROCLOSENE POTASSIUM

>  <therap>  (145) 
antiinfective

>  <ref>  (145) 
J Org Chem 25:1595 (1960)

>  <cas#>  (145) 
2244-21-5

>  <source>  (145) 
synthetic; ACL-59

>  <status>  (145) 
USAN

>  <tradename>  (145) 
ACCEPTA 8505

>  <SMILES>  (145) 
O=c1[nH]c(=O)n(Cl)c(=O)n1Cl

>  <standardized_failed>  (145) 
False

$$$$

     RDKit          2D

 10  9  0  0  0  0  0  0  0  0999 V2000
    3.2792   -0.4042    0.0000 C   0  0  0  0  0  0  0  0  0  0  0  0
    6.8417    0.0083    0.0000 C   0  0  0  0  0  0  0  0  0  0  0  0
    3.2792   -1.2292    0.0000 O   0  0  0  0  0  0  0  0  0  0  0  0
    6.8375    0.8333    0.0000 O   0  0  0  0  0  0  0  0  0  0  0  0
    7.5542   -0.4000    0.0000 O   0  0  0  0  0  0  0  0  0  0  0  0
    2.5625    0.0083    0.0000 O   0  0  0  0  0  0  0  0  0  0  0  0
    6.1292   -0.4042    0.0000 C   0  0  0  0  0  0  0  0  0  0  0  0
    3.9917    0.0083    0.0000 C   0  0  0  0  0  0  0  0  0  0  0  0
    4.7042   -0.4042    0.0000 C   0  0  0  0  0  0  0  0  0  0  0  0
    5.4167    0.0083    0.0000 C   0  0  0  0  0  0  0  0  0  0  0  0
  2  7  1  0
  3  1  2  0
  4  2  2  0
  5  2  1  0
  6  1  1  0
  7 10  1  0
  8  1  1  0
  9  8  1  0
 10  9  1  0
M  END
>  <ID>  (146) 


>  <MOLENAME>  (146) 
ADIPIC ACID

>  <therap>  (146) 
acidulating agent

>  <ref>  (146) 
JACS 62:869 (1910), J Org Chem 38:3729 (1973)

>  <cas#>  (146) 
124-04-9

>  <source>  (146) 
synthetic

>  <status>  (146) 
NF

>  <tradename>  (146) 
nan

>  <SMILES>  (146) 
O=C(O)CCCCC(=O)O

>  <standardized_failed>  (146) 
False

$$$$

     RDKit          2D

  7  4  0  0  0  0  0  0  0  0999 V2000
    3.4917   -3.6792    0.0000 P   0  0  0  0  0  0  0  0  0  0  0  0
    4.3167   -3.6792    0.0000 O   0  0  0  0  0  0  0  0  0  0  0  0
    3.4917   -4.5042    0.0000 O   0  0  0  0  0  0  0  0  0  0  0  0
    3.4917   -2.8542    0.0000 O   0  0  0  0  0  0  0  0  0  0  0  0
    2.6667   -3.6792    0.0000 F   0  0  0  0  0  0  0  0  0  0  0  0
    5.7125   -3.5250    0.0000 Na  0  0  0  0  0 15  0  0  0  0  0  0
    4.4667   -5.1500    0.0000 Na  0  0  0  0  0 15  0  0  0  0  0  0
  2  1  1  0
  3  1  1  0
  4  1  2  0
  5  1  1  0
M  CHG  4   2  -1   3  -1   6   1   7   1
M  END
>  <ID>  (147) 


>  <MOLENAME>  (147) 
SODIUM MONOFLUOROPHOSPHATE

>  <therap>  (147) 
dental carries prophylactic

>  <ref>  (147) 
J Peridontal Res 4:103 (1969); Annals Intern Med 129:1 (1998)

>  <cas#>  (147) 
10163-15-2

>  <source>  (147) 
synthetic

>  <status>  (147) 
USP

>  <tradename>  (147) 
nan

>  <SMILES>  (147) 
O=P([O-])([O-])F.[Na+].[Na+]

>  <standardized_failed>  (147) 
False

$$$$

     RDKit          2D

 34 34  0  0  0  0  0  0  0  0999 V2000
    4.5042   -4.4292    0.0000 C   0  0  0  0  0  0  0  0  0  0  0  0
    5.2167   -4.0167    0.0000 C   0  0  0  0  0  0  0  0  0  0  0  0
    0.9292   -4.0167    0.0000 C   0  0  0  0  0  0  0  0  0  0  0  0
    3.7875   -4.0042    0.0000 N   0  0  0  0  0  0  0  0  0  0  0  0
    1.6417   -4.4292    0.0000 C   0  0  0  0  0  0  0  0  0  0  0  0
    8.7292   -3.6500    0.0000 C   0  0  0  0  0  0  0  0  0  0  0  0
    9.3250   -3.3042    0.0000 C   0  0  0  0  0  0  0  0  0  0  0  0
    2.3542   -4.0167    0.0000 C   0  0  0  0  0  0  0  0  0  0  0  0
    3.0750   -4.4292    0.0000 C   0  0  0  0  0  0  0  0  0  0  0  0
    5.2125   -3.1917    0.0000 C   0  0  0  0  0  0  0  0  0  0  0  0
    4.5042   -5.2542    0.0000 N   0  0  0  0  0  0  0  0  0  0  0  0
    8.1375   -3.3125    0.0000 C   0  0  0  0  0  0  0  0  0  0  0  0
    9.9167   -3.6500    0.0000 C   0  0  0  0  0  0  0  0  0  0  0  0
    4.5000   -2.7792    0.0000 O   0  0  0  0  0  0  0  0  0  0  0  0
    0.2167   -3.6042    0.0000 F   0  0  0  0  0  0  0  0  0  0  0  0
    0.9292   -3.1917    0.0000 F   0  0  0  0  0  0  0  0  0  0  0  0
    0.2167   -4.4292    0.0000 F   0  0  0  0  0  0  0  0  0  0  0  0
    8.7292   -4.3417    0.0000 O   0  0  0  0  0  0  0  0  0  0  0  0
    9.3167   -2.6167    0.0000 O   0  0  0  0  0  0  0  0  0  0  0  0
    5.9250   -2.7792    0.0000 O   0  0  0  0  0  0  0  0  0  0  0  0
    6.9542   -3.3167    0.0000 N   0  0  0  0  0  0  0  0  0  0  0  0
    8.1292   -2.6250    0.0000 O   0  0  0  0  0  0  0  0  0  0  0  0
    9.9167   -4.3375    0.0000 O   0  0  0  0  0  0  0  0  0  0  0  0
    5.9292   -4.4250    0.0000 C   0  0  0  0  0  0  0  0  0  0  0  0
    1.6417   -5.2542    0.0000 C   0  0  0  0  0  0  0  0  0  0  0  0
    3.0667   -5.2542    0.0000 C   0  0  0  0  0  0  0  0  0  0  0  0
    2.3542   -3.1917    0.0000 C   0  0  0  0  0  0  0  0  0  0  0  0
    7.5417   -3.6542    0.0000 C   0  0  0  0  0  0  0  0  0  0  0  0
   11.1000   -3.6417    0.0000 O   0  0  0  0  0  0  0  0  0  0  0  0
    2.3542   -5.6667    0.0000 C   0  0  0  0  0  0  0  0  0  0  0  0
   10.5042   -3.3042    0.0000 C   0  0  0  0  0  0  0  0  0  0  0  0
    5.2167   -5.6667    0.0000 C   0  0  0  0  0  0  0  0  0  0  0  0
    6.3625   -3.6542    0.0000 C   0  0  0  0  0  0  0  0  0  0  0  0
    5.9292   -5.2542    0.0000 C   0  0  0  0  0  0  0  0  0  0  0  0
  2  1  2  0
  3  5  1  0
  4  1  1  0
  5  8  2  0
  7  6  1  0
  8  9  1  0
  9  4  1  0
 10  2  1  0
 11  1  1  0
 12  6  1  0
 13  7  1  0
 14 10  2  0
 15  3  1  0
 16  3  1  0
 17  3  1  0
  6 18  1  6
  7 19  1  6
 20 10  1  0
 21 28  1  0
 12 22  1  6
 13 23  1  1
 24  2  1  0
 25  5  1  0
 26  9  2  0
 27  8  1  0
 28 12  1  0
 29 31  1  0
 30 26  1  0
 31 13  1  0
 32 11  2  0
 33 21  1  0
 34 32  1  0
 24 34  2  0
 30 25  2  0
M  END
>  <ID>  (148) 


>  <MOLENAME>  (148) 
FLUNIXIN MEGLUMINE

>  <therap>  (148) 
analgesic, antiinflammatory

>  <ref>  (148) 
J Am Vet Med Assoc 194:45 (1989); 202: 71 (1993)

>  <cas#>  (148) 
42461-84-7

>  <source>  (148) 
synthetic; SCH-14714

>  <status>  (148) 
USP

>  <tradename>  (148) 
BANAMINE

>  <SMILES>  (148) 
Cc1c(C(F)(F)F)cccc1Nc1c(C(=O)O)cccn1

>  <standardized_failed>  (148) 
False

$$$$

     RDKit          2D

 13 13  0  0  0  0  0  0  0  0999 V2000
    1.0667   -0.3625    0.0000 O   0  0  0  0  0  0  0  0  0  0  0  0
    0.3500   -0.7750    0.0000 C   0  0  0  0  0  0  0  0  0  0  0  0
    0.3500   -1.6000    0.0000 C   0  0  0  0  0  0  0  0  0  0  0  0
    1.7792   -0.7792    0.0000 C   0  0  0  0  0  0  0  0  0  0  0  0
    2.4917   -0.3667    0.0000 C   0  0  0  0  0  0  0  0  0  0  0  0
    3.2042   -0.7792    0.0000 O   0  0  0  0  0  0  0  0  0  0  0  0
    3.2125    0.8708    0.0000 O   0  0  0  0  0  0  0  0  0  0  0  0
    2.5000    0.4583    0.0000 C   0  0  0  0  0  0  0  0  0  0  0  0
   -0.3625   -0.3542    0.0000 C   0  0  0  0  0  0  0  0  0  0  0  0
    1.0667   -2.0125    0.0000 C   0  0  0  0  0  0  0  0  0  0  0  0
   -0.3625   -2.0042    0.0000 C   0  0  0  0  0  0  0  0  0  0  0  0
   -1.0708   -1.6000    0.0000 C   0  0  0  0  0  0  0  0  0  0  0  0
   -1.0708   -0.7750    0.0000 C   0  0  0  0  0  0  0  0  0  0  0  0
  2  1  1  0
  3  2  2  0
  4  1  1  0
  5  4  1  0
  6  5  1  0
  7  8  1  0
  8  5  1  0
  9  2  1  0
 10  3  1  0
 11  3  1  0
 12 13  1  0
 13  9  2  0
 12 11  2  0
M  END
>  <ID>  (149) 


>  <MOLENAME>  (149) 
MEPHENESIN

>  <therap>  (149) 
muscle relaxant (skeletal)

>  <ref>  (149) 
Proc. R. Soc. Med. (1948), 41(9), 593-606; Br. J. Pharmacol. Chemother. (1947), 2(4), 241-50; Mod. Trends Neurol. (1975), 6205-21

>  <cas#>  (149) 
59-47-2

>  <source>  (149) 
synthetic

>  <status>  (149) 
NF-XII, INN, BAN

>  <tradename>  (149) 
TOLSEROL

>  <SMILES>  (149) 
Cc1c(OCC(O)CO)cccc1

>  <standardized_failed>  (149) 
False

$$$$

     RDKit          2D

 33 36  0  0  0  0  0  0  0  0999 V2000
    3.1958   -1.8667    0.0000 C   0  0  0  0  0  0  0  0  0  0  0  0
    1.0458   -3.0875    0.0000 C   0  0  0  0  0  0  0  0  0  0  0  0
    3.9792   -1.6208    0.0000 C   0  0  0  0  0  0  0  0  0  0  0  0
    2.4667   -3.0958    0.0000 C   0  0  0  0  0  0  0  0  0  0  0  0
    3.1875   -2.6917    0.0000 C   0  0  0  0  0  0  0  0  0  0  0  0
    1.7583   -2.6750    0.0000 C   0  0  0  0  0  0  0  0  0  0  0  0
    1.0417   -3.9125    0.0000 C   0  0  0  0  0  0  0  0  0  0  0  0
    2.4875   -1.4458    0.0000 C   0  0  0  0  0  0  0  0  0  0  0  0
    1.7625   -1.8500    0.0000 C   0  0  0  0  0  0  0  0  0  0  0  0
    0.3333   -2.6667    0.0000 C   0  0  0  0  0  0  0  0  0  0  0  0
    4.6917   -1.2042    0.0000 C   0  0  0  0  0  0  0  0  0  0  0  0
    0.3333   -4.3167    0.0000 C   0  0  0  0  0  0  0  0  0  0  0  0
    4.4542   -2.2917    0.0000 C   0  0  0  0  0  0  0  0  0  0  0  0
    3.9667   -2.9500    0.0000 C   0  0  0  0  0  0  0  0  0  0  0  0
    2.4708   -3.9167    0.0000 C   0  0  0  0  0  0  0  0  0  0  0  0
   -0.3750   -3.0875    0.0000 C   0  0  0  0  0  0  0  0  0  0  0  0
   -0.3750   -3.9125    0.0000 C   0  0  0  0  0  0  0  0  0  0  0  0
    6.8292   -1.6042    0.0000 C   0  0  0  0  0  0  0  0  0  0  0  0
    1.7542   -4.3250    0.0000 C   0  0  0  0  0  0  0  0  0  0  0  0
    5.4083   -1.6083    0.0000 C   0  0  0  0  0  0  0  0  0  0  0  0
    4.6792   -0.3792    0.0000 O   0  0  0  0  0  0  0  0  0  0  0  0
    6.1167   -1.1917    0.0000 O   0  0  0  0  0  0  0  0  0  0  0  0
    6.8333   -2.4292    0.0000 O   0  0  0  0  0  0  0  0  0  0  0  0
   -1.0917   -4.3250    0.0000 O   0  0  0  0  0  0  0  0  0  0  0  0
    3.7625   -0.8167    0.0000 O   0  0  0  0  0  0  0  0  0  0  0  0
    7.5417   -1.1917    0.0000 C   0  0  0  0  0  0  0  0  0  0  0  0
    8.2542   -1.6000    0.0000 C   0  0  0  0  0  0  0  0  0  0  0  0
    3.1917   -1.0417    0.0000 C   0  0  0  0  0  0  0  0  0  0  0  0
    1.0542   -1.4333    0.0000 O   0  0  0  0  0  0  0  0  0  0  0  0
    1.0417   -2.2625    0.0000 C   0  0  0  0  0  0  0  0  0  0  0  0
    8.2583   -2.4250    0.0000 C   0  0  0  0  0  0  0  0  0  0  0  0
    8.9708   -1.1833    0.0000 C   0  0  0  0  0  0  0  0  0  0  0  0
    8.9667   -2.0125    0.0000 C   0  0  0  0  0  0  0  0  0  0  0  0
  2  6  1  0
  3  1  1  0
  4  5  1  0
  5  1  1  0
  6  4  1  0
  7  2  1  0
  8  1  1  0
  9  8  1  0
 10  2  1  0
  3 11  1  0
 12  7  2  0
 13  3  1  0
 14  5  1  0
 15  4  1  0
 16 10  2  0
 17 12  1  0
 18 22  1  0
 19 15  1  0
 20 11  1  0
 21 11  2  0
 22 20  1  0
 23 18  2  0
 24 17  2  0
  3 25  1  6
 26 18  1  0
 27 26  1  0
  1 28  1  1
  9 29  1  1
  2 30  1  1
 31 27  1  0
 32 27  1  0
 33 27  1  0
 13 14  1  0
  9  6  1  0
 19  7  1  0
 17 16  1  0
M  END
>  <ID>  (150) 


>  <MOLENAME>  (150) 
PREDNISOLONE TEBUTATE

>  <therap>  (150) 
antiinflammatory, glucocorticoid

>  <ref>  (150) 
Agents Actions (1980), 10(3), 258-65; Rheumatology (2003), 42(9), 1093-100

>  <cas#>  (150) 
7681-14-3

>  <source>  (150) 
semisynthetic

>  <status>  (150) 
USP, JAN

>  <tradename>  (150) 
nan

>  <SMILES>  (150) 
CC(C)(C)CC(=O)OCC(=O)[C@@]1(O)CCC2C3CCC4=CC(=O)C=C[C@]4(C)C3[C@@H](O)C[C@@]21C

>  <standardized_failed>  (150) 
False

$$$$

     RDKit          2D

 21 22  0  0  0  0  0  0  0  0999 V2000
   -1.3958    1.5083    0.0000 S   0  0  0  0  0  0  0  0  0  0  0  0
   -0.6833    1.1000    0.0000 N   0  0  0  0  0  0  0  0  0  0  0  0
    0.0292    1.5125    0.0000 C   0  0  0  0  0  0  0  0  0  0  0  0
    0.7417    1.1083    0.0000 C   0  0  0  0  0  0  0  0  0  0  0  0
    0.0250    2.3292    0.0000 N   0  0  0  0  0  0  0  0  0  0  0  0
    1.4500    1.5208    0.0000 C   0  0  0  0  0  0  0  0  0  0  0  0
    1.4458    2.3417    0.0000 N   0  0  0  0  0  0  0  0  0  0  0  0
   -2.1042    1.0958    0.0000 C   0  0  0  0  0  0  0  0  0  0  0  0
   -0.8083    2.0958    0.0000 O   0  0  0  0  0  0  0  0  0  0  0  0
   -1.9833    2.0958    0.0000 O   0  0  0  0  0  0  0  0  0  0  0  0
    0.7292    2.7458    0.0000 C   0  0  0  0  0  0  0  0  0  0  0  0
   -2.1042    0.2667    0.0000 C   0  0  0  0  0  0  0  0  0  0  0  0
   -2.8208    1.5083    0.0000 C   0  0  0  0  0  0  0  0  0  0  0  0
    0.7500    0.2833    0.0000 O   0  0  0  0  0  0  0  0  0  0  0  0
   -3.5333    0.2667    0.0000 C   0  0  0  0  0  0  0  0  0  0  0  0
    2.1667    1.1125    0.0000 O   0  0  0  0  0  0  0  0  0  0  0  0
   -4.2500   -0.1458    0.0000 N   0  0  0  0  0  0  0  0  0  0  0  0
   -3.5333    1.0958    0.0000 C   0  0  0  0  0  0  0  0  0  0  0  0
   -2.8208   -0.1458    0.0000 C   0  0  0  0  0  0  0  0  0  0  0  0
    0.0375   -0.1333    0.0000 C   0  0  0  0  0  0  0  0  0  0  0  0
    2.1708    0.2875    0.0000 C   0  0  0  0  0  0  0  0  0  0  0  0
  2  1  1  0
  3  2  1  0
  4  3  2  0
  5  3  1  0
  6  4  1  0
  7 11  1  0
  8  1  1  0
  9  1  2  0
 10  1  2  0
 11  5  2  0
 12  8  2  0
 13  8  1  0
 14  4  1  0
 15 19  2  0
 16  6  1  0
 17 15  1  0
 18 13  2  0
 19 12  1  0
 20 14  1  0
 21 16  1  0
 15 18  1  0
  7  6  2  0
M  END
>  <ID>  (151) 


>  <MOLENAME>  (151) 
SULFADOXINE

>  <therap>  (151) 
antibacterial

>  <ref>  (151) 
Chemotherapy 14:195 (1969); Br Med J 328:545 (2004)

>  <cas#>  (151) 
2447-57-6

>  <source>  (151) 
synthetic; RO-4-4393

>  <status>  (151) 
USP, INN, BAN, JAN

>  <tradename>  (151) 
FANASIL

>  <SMILES>  (151) 
COc1ncnc(NS(=O)(=O)c2ccc(N)cc2)c1OC

>  <standardized_failed>  (151) 
False

$$$$

     RDKit          2D

 27 30  0  0  0  0  0  0  0  0999 V2000
    0.9667   -2.6708    0.0000 C   0  0  0  0  0  0  0  0  0  0  0  0
   -1.1750   -3.9000    0.0000 C   0  0  0  0  0  0  0  0  0  0  0  0
    0.9625   -3.4917    0.0000 C   0  0  0  0  0  0  0  0  0  0  0  0
   -0.4625   -3.4833    0.0000 C   0  0  0  0  0  0  0  0  0  0  0  0
    0.2458   -3.9000    0.0000 C   0  0  0  0  0  0  0  0  0  0  0  0
    1.7417   -1.5917    0.0000 C   0  0  0  0  0  0  0  0  0  0  0  0
    1.7500   -2.4167    0.0000 C   0  0  0  0  0  0  0  0  0  0  0  0
   -1.8875   -5.1292    0.0000 N   0  0  0  0  0  0  0  0  0  0  0  0
   -1.8875   -3.4792    0.0000 C   0  0  0  0  0  0  0  0  0  0  0  0
   -1.1708   -4.7250    0.0000 C   0  0  0  0  0  0  0  0  0  0  0  0
   -2.5958   -4.7250    0.0000 C   0  0  0  0  0  0  0  0  0  0  0  0
    2.4542   -1.1708    0.0000 N   0  0  0  0  0  0  0  0  0  0  0  0
    0.2542   -2.2542    0.0000 C   0  0  0  0  0  0  0  0  0  0  0  0
   -0.4625   -2.6625    0.0000 C   0  0  0  0  0  0  0  0  0  0  0  0
    1.7458   -3.7500    0.0000 C   0  0  0  0  0  0  0  0  0  0  0  0
   -2.5958   -3.9000    0.0000 C   0  0  0  0  0  0  0  0  0  0  0  0
    2.2333   -3.0875    0.0000 C   0  0  0  0  0  0  0  0  0  0  0  0
    0.2542   -4.7208    0.0000 C   0  0  0  0  0  0  0  0  0  0  0  0
    1.0250   -1.1833    0.0000 O   0  0  0  0  0  0  0  0  0  0  0  0
   -0.4625   -5.1333    0.0000 C   0  0  0  0  0  0  0  0  0  0  0  0
    2.4458   -0.3417    0.0000 C   0  0  0  0  0  0  0  0  0  0  0  0
   -3.3125   -5.1375    0.0000 O   0  0  0  0  0  0  0  0  0  0  0  0
    0.9625   -1.8417    0.0000 C   0  0  0  0  0  0  0  0  0  0  0  0
   -1.1833   -3.0750    0.0000 C   0  0  0  0  0  0  0  0  0  0  0  0
    1.6250   -0.3417    0.0000 C   0  0  0  0  0  0  0  0  0  0  0  0
    3.2750   -0.3417    0.0000 C   0  0  0  0  0  0  0  0  0  0  0  0
    2.4417    0.4833    0.0000 C   0  0  0  0  0  0  0  0  0  0  0  0
  2  4  1  0
  3  1  1  0
  4 14  1  0
  5  3  1  0
  7  6  1  1
  7  1  1  0
  8 10  1  0
  9  2  1  0
 10  2  1  0
 11  8  1  0
 12  6  1  0
 13  1  1  0
 14 13  1  0
 15  3  1  0
 16  9  2  0
 17  7  1  0
 18  5  1  0
 19  6  2  0
 20 18  1  0
 21 12  1  0
 22 11  2  0
  1 23  1  1
  2 24  1  1
 25 21  1  0
 26 21  1  0
 27 21  1  0
 17 15  1  0
  5  4  1  0
 20 10  1  0
 11 16  1  0
M  END
>  <ID>  (152) 


>  <MOLENAME>  (152) 
FINASTERIDE

>  <therap>  (152) 
anti-androgen, alpha-reductase inhibitor

>  <ref>  (152) 
Pharmacotherapy 13:309 (1993); N Eng J Med 338:557 (1998)

>  <cas#>  (152) 
98319-26-7

>  <source>  (152) 
synthetic; MK-906

>  <status>  (152) 
USP, INN, BAN

>  <tradename>  (152) 
PROSCAR

>  <SMILES>  (152) 
CC(C)(C)NC(=O)[C@H]1CCC2C3CCC4NC(=O)C=C[C@]4(C)C3CC[C@@]21C

>  <standardized_failed>  (152) 
False

$$$$

     RDKit          2D

 27 26  0  0  0  0  0  0  0  0999 V2000
   -2.9083    0.6250    0.0000 C   0  0  0  0  0  0  0  0  0  0  0  0
   -0.7667   -0.6042    0.0000 C   0  0  0  0  0  0  0  0  0  0  0  0
    4.2167    0.6500    0.0000 C   0  0  0  0  0  0  0  0  0  0  0  0
    2.0792   -0.5958    0.0000 C   0  0  0  0  0  0  0  0  0  0  0  0
    1.3625    2.2875    0.0000 C   0  0  0  0  0  0  0  0  0  0  0  0
   -1.4833    0.6333    0.0000 N   0  0  0  0  0  0  0  0  0  0  0  0
    2.7917    0.6458    0.0000 N   0  0  0  0  0  0  0  0  0  0  0  0
    1.3625    3.1125    0.0000 O   0  0  0  0  0  0  0  0  0  0  0  0
   -0.0542   -0.1917    0.0000 O   0  0  0  0  0  0  0  0  0  0  0  0
    4.9333    1.0625    0.0000 O   0  0  0  0  0  0  0  0  0  0  0  0
   -3.6250    1.0375    0.0000 O   0  0  0  0  0  0  0  0  0  0  0  0
    1.3625   -0.1875    0.0000 O   0  0  0  0  0  0  0  0  0  0  0  0
   -1.4833   -0.1917    0.0000 C   0  0  0  0  0  0  0  0  0  0  0  0
   -2.1958    1.0375    0.0000 C   0  0  0  0  0  0  0  0  0  0  0  0
    2.7917   -0.1792    0.0000 C   0  0  0  0  0  0  0  0  0  0  0  0
    3.5042    1.0583    0.0000 C   0  0  0  0  0  0  0  0  0  0  0  0
    0.6542    1.0458    0.0000 N   0  0  0  0  0  0  0  0  0  0  0  0
    0.6500    1.8708    0.0000 C   0  0  0  0  0  0  0  0  0  0  0  0
   -0.7708    1.0458    0.0000 C   0  0  0  0  0  0  0  0  0  0  0  0
    2.0792    1.0500    0.0000 C   0  0  0  0  0  0  0  0  0  0  0  0
   -2.9083   -0.2000    0.0000 O   0  0  0  0  0  0  0  0  0  0  0  0
    4.2208   -0.1750    0.0000 O   0  0  0  0  0  0  0  0  0  0  0  0
   -0.7667   -1.4292    0.0000 O   0  0  0  0  0  0  0  0  0  0  0  0
    2.0833   -1.4208    0.0000 O   0  0  0  0  0  0  0  0  0  0  0  0
    2.0792    1.8750    0.0000 O   0  0  0  0  0  0  0  0  0  0  0  0
   -0.0583    0.6333    0.0000 C   0  0  0  0  0  0  0  0  0  0  0  0
    1.3667    0.6375    0.0000 C   0  0  0  0  0  0  0  0  0  0  0  0
  2 13  1  0
  3 16  1  0
  4 15  1  0
  5 18  1  0
  6 14  1  0
  7 20  1  0
  8  5  2  0
  9  2  2  0
 10  3  2  0
 11  1  2  0
 12  4  2  0
 13  6  1  0
 14  1  1  0
 15  7  1  0
 16  7  1  0
 17 26  1  0
 18 17  1  0
 19  6  1  0
 20 27  1  0
 21  1  1  0
 22  3  1  0
 23  2  1  0
 24  4  1  0
 25  5  1  0
 26 19  1  0
 27 17  1  0
M  END
>  <ID>  (153) 


>  <MOLENAME>  (153) 
PENTETIC ACID

>  <therap>  (153) 
chelating agent, diagnostic aid

>  <ref>  (153) 
Chest 105:1765 (1994); Int J Toxicol  27 Suppl 2:71 (2008)

>  <cas#>  (153) 
67-43-6

>  <source>  (153) 
synthetic; DTPA

>  <status>  (153) 
USP, INN, BAN

>  <tradename>  (153) 
nan

>  <SMILES>  (153) 
O=C(O)CN(CCN(CC(=O)O)CC(=O)O)CCN(CC(=O)O)CC(=O)O

>  <standardized_failed>  (153) 
False

$$$$

     RDKit          2D

 13 13  0  0  0  0  0  0  0  0999 V2000
    4.6708   -1.5792    0.0000 C   0  0  0  0  0  0  0  0  0  0  0  0
    3.9583   -1.9958    0.0000 C   0  0  0  0  0  0  0  0  0  0  0  0
    5.3875   -1.9875    0.0000 N   0  0  0  0  0  0  0  0  0  0  0  0
    4.6667   -0.7542    0.0000 O   0  0  0  0  0  0  0  0  0  0  0  0
    3.2417   -3.2375    0.0000 N   0  0  0  0  0  0  0  0  0  0  0  0
    3.9583   -2.8250    0.0000 C   0  0  0  0  0  0  0  0  0  0  0  0
    3.2417   -1.5833    0.0000 C   0  0  0  0  0  0  0  0  0  0  0  0
    5.3875   -2.8125    0.0000 C   0  0  0  0  0  0  0  0  0  0  0  0
    6.1000   -1.5750    0.0000 C   0  0  0  0  0  0  0  0  0  0  0  0
    2.5292   -2.8250    0.0000 C   0  0  0  0  0  0  0  0  0  0  0  0
    2.5292   -2.0000    0.0000 C   0  0  0  0  0  0  0  0  0  0  0  0
    6.8167   -1.9833    0.0000 C   0  0  0  0  0  0  0  0  0  0  0  0
    6.1042   -3.2250    0.0000 C   0  0  0  0  0  0  0  0  0  0  0  0
  2  1  1  0
  3  1  1  0
  4  1  2  0
  5  6  1  0
  6  2  2  0
  7  2  1  0
  8  3  1  0
  9  3  1  0
 10 11  1  0
 11  7  2  0
 12  9  1  0
 13  8  1  0
  5 10  2  0
M  END
>  <ID>  (154) 


>  <MOLENAME>  (154) 
NIKETHAMIDE

>  <therap>  (154) 
analeptic

>  <ref>  (154) 
J Pharmacol Exp Therap 132:295 (1961); JAMA 185:69 (1963) 

>  <cas#>  (154) 
59-26-7

>  <source>  (154) 
synthetic

>  <status>  (154) 
NF-XIII, INN, BAN

>  <tradename>  (154) 
NIKETHYL

>  <SMILES>  (154) 
CCN(CC)C(=O)c1cnccc1

>  <standardized_failed>  (154) 
False

$$$$

     RDKit          2D

 32 35  0  0  0  0  0  0  0  0999 V2000
    5.9667   -2.7875    0.0000 C   0  0  0  0  0  0  0  0  0  0  0  0
    6.7417   -2.5375    0.0000 C   0  0  0  0  0  0  0  0  0  0  0  0
    3.8167   -4.0292    0.0000 C   0  0  0  0  0  0  0  0  0  0  0  0
    5.2417   -4.0292    0.0000 C   0  0  0  0  0  0  0  0  0  0  0  0
    5.9667   -3.6167    0.0000 C   0  0  0  0  0  0  0  0  0  0  0  0
    4.5292   -3.6167    0.0000 C   0  0  0  0  0  0  0  0  0  0  0  0
    3.8167   -4.8542    0.0000 C   0  0  0  0  0  0  0  0  0  0  0  0
    5.2417   -2.3750    0.0000 C   0  0  0  0  0  0  0  0  0  0  0  0
    4.5292   -2.7875    0.0000 C   0  0  0  0  0  0  0  0  0  0  0  0
    3.1042   -5.2667    0.0000 C   0  0  0  0  0  0  0  0  0  0  0  0
    7.0792   -1.7792    0.0000 C   0  0  0  0  0  0  0  0  0  0  0  0
    7.2292   -3.2000    0.0000 C   0  0  0  0  0  0  0  0  0  0  0  0
    7.5542   -2.6625    0.0000 O   0  0  0  0  0  0  0  0  0  0  0  0
    6.7417   -3.8750    0.0000 C   0  0  0  0  0  0  0  0  0  0  0  0
    5.2417   -4.8542    0.0000 C   0  0  0  0  0  0  0  0  0  0  0  0
    3.1042   -3.6167    0.0000 C   0  0  0  0  0  0  0  0  0  0  0  0
    8.2375   -3.2667    0.0000 C   0  0  0  0  0  0  0  0  0  0  0  0
    4.5292   -5.2667    0.0000 C   0  0  0  0  0  0  0  0  0  0  0  0
    2.3917   -4.8542    0.0000 C   0  0  0  0  0  0  0  0  0  0  0  0
    6.5917   -1.1125    0.0000 O   0  0  0  0  0  0  0  0  0  0  0  0
    8.2292   -4.0917    0.0000 O   0  0  0  0  0  0  0  0  0  0  0  0
    1.6667   -5.2750    0.0000 O   0  0  0  0  0  0  0  0  0  0  0  0
    5.9542   -1.9625    0.0000 C   0  0  0  0  0  0  0  0  0  0  0  0
    2.3917   -4.0292    0.0000 C   0  0  0  0  0  0  0  0  0  0  0  0
    3.8042   -2.3625    0.0000 O   0  0  0  0  0  0  0  0  0  0  0  0
    3.8167   -3.2000    0.0000 C   0  0  0  0  0  0  0  0  0  0  0  0
    7.9042   -1.6917    0.0000 C   0  0  0  0  0  0  0  0  0  0  0  0
    8.2417   -0.9375    0.0000 O   0  0  0  0  0  0  0  0  0  0  0  0
    8.9500   -2.8542    0.0000 C   0  0  0  0  0  0  0  0  0  0  0  0
    9.6625   -3.2667    0.0000 C   0  0  0  0  0  0  0  0  0  0  0  0
   10.3750   -2.8625    0.0000 C   0  0  0  0  0  0  0  0  0  0  0  0
   11.0875   -3.2750    0.0000 C   0  0  0  0  0  0  0  0  0  0  0  0
  2  1  1  0
  3  6  1  0
  4  5  1  0
  5  1  1  0
  6  9  1  0
  7  3  1  0
  8  1  1  0
  9  8  1  0
 10  7  2  0
  2 11  1  0
 12  2  1  0
  2 13  1  6
 14  5  1  0
 15  4  1  0
 16  3  1  0
 17 13  1  0
 18 15  1  0
 19 24  1  0
 20 11  2  0
 21 17  2  0
 22 19  2  0
  1 23  1  1
 24 16  1  0
  9 25  1  1
  3 26  1  1
 27 11  1  0
 28 27  1  0
 29 17  1  0
 30 29  1  0
 31 30  1  0
 32 31  1  0
 12 14  1  0
  6  4  1  0
 18  7  1  0
 10 19  1  0
M  END
>  <ID>  (155) 


>  <MOLENAME>  (155) 
HYDROCORTISONE VALERATE

>  <therap>  (155) 
antiinflammatory, glucocorticoid

>  <ref>  (155) 
J. Med. Chem. (1983), 26(3), 318-28; J. Med. Chem. (1982), 25(6), 747-9; Clin. Ther. (1984), 6(3), 282-93

>  <cas#>  (155) 
57524-89-7

>  <source>  (155) 
semisynthetic

>  <status>  (155) 
USP

>  <tradename>  (155) 
WESTCORT

>  <SMILES>  (155) 
CCCCC(=O)O[C@]1(C(=O)CO)CCC2C3CCC4=CC(=O)CC[C@]4(C)C3[C@@H](O)C[C@@]21C

>  <standardized_failed>  (155) 
False

$$$$

     RDKit          2D

 34 38  0  0  0  0  0  0  0  0999 V2000
    6.4125   -3.3125    0.0000 N   0  0  0  0  0  0  0  0  0  0  0  0
    6.4042   -4.1292    0.0000 C   0  0  0  0  0  0  0  0  0  0  0  0
    5.7000   -2.8917    0.0000 C   0  0  0  0  0  0  0  0  0  0  0  0
    4.9875   -3.3042    0.0000 C   0  0  0  0  0  0  0  0  0  0  0  0
    5.6875   -4.5417    0.0000 N   0  0  0  0  0  0  0  0  0  0  0  0
    4.9792   -4.1292    0.0000 C   0  0  0  0  0  0  0  0  0  0  0  0
    0.7042   -1.6417    0.0000 C   0  0  0  0  0  0  0  0  0  0  0  0
    7.1917   -4.3917    0.0000 S   0  0  0  0  0  0  0  0  0  0  0  0
    1.4167   -2.0542    0.0000 C   0  0  0  0  0  0  0  0  0  0  0  0
    4.2667   -2.8917    0.0000 C   0  0  0  0  0  0  0  0  0  0  0  0
    7.2000   -3.0542    0.0000 C   0  0  0  0  0  0  0  0  0  0  0  0
    2.8417   -2.8875    0.0000 N   0  0  0  0  0  0  0  0  0  0  0  0
    7.6792   -3.7292    0.0000 C   0  0  0  0  0  0  0  0  0  0  0  0
    5.7000   -2.0667    0.0000 O   0  0  0  0  0  0  0  0  0  0  0  0
   -0.0083   -2.0542    0.0000 C   0  0  0  0  0  0  0  0  0  0  0  0
    0.7042   -0.8167    0.0000 C   0  0  0  0  0  0  0  0  0  0  0  0
    2.1292   -1.6417    0.0000 C   0  0  0  0  0  0  0  0  0  0  0  0
    1.4167   -2.8792    0.0000 C   0  0  0  0  0  0  0  0  0  0  0  0
    3.5542   -3.3000    0.0000 C   0  0  0  0  0  0  0  0  0  0  0  0
    1.4167   -0.4125    0.0000 C   0  0  0  0  0  0  0  0  0  0  0  0
   -0.0083   -0.4125    0.0000 C   0  0  0  0  0  0  0  0  0  0  0  0
   -0.7208   -1.6417    0.0000 C   0  0  0  0  0  0  0  0  0  0  0  0
   -0.0083   -2.8792    0.0000 C   0  0  0  0  0  0  0  0  0  0  0  0
    2.8417   -2.0542    0.0000 C   0  0  0  0  0  0  0  0  0  0  0  0
    2.1250   -3.2917    0.0000 C   0  0  0  0  0  0  0  0  0  0  0  0
   -1.4375   -2.8750    0.0000 C   0  0  0  0  0  0  0  0  0  0  0  0
    0.7042    0.8333    0.0000 C   0  0  0  0  0  0  0  0  0  0  0  0
   -1.4333   -2.0500    0.0000 C   0  0  0  0  0  0  0  0  0  0  0  0
   -0.0083    0.4125    0.0000 C   0  0  0  0  0  0  0  0  0  0  0  0
    1.4167    0.4125    0.0000 C   0  0  0  0  0  0  0  0  0  0  0  0
   -0.7250   -3.2875    0.0000 C   0  0  0  0  0  0  0  0  0  0  0  0
    4.2625   -4.5375    0.0000 C   0  0  0  0  0  0  0  0  0  0  0  0
   -2.1583   -3.2792    0.0000 F   0  0  0  0  0  0  0  0  0  0  0  0
    0.7042    1.6583    0.0000 F   0  0  0  0  0  0  0  0  0  0  0  0
  2  1  1  0
  3  1  1  0
  4  3  1  0
  5  2  2  0
  6  4  2  0
  7  9  2  0
  8  2  1  0
  9 18  1  0
 10  4  1  0
 11  1  1  0
 12 19  1  0
 13 11  2  0
 14  3  2  0
 15  7  1  0
 16  7  1  0
 17 24  1  0
 18 25  1  0
 19 10  1  0
 20 16  2  0
 21 16  1  0
 22 15  2  0
 23 15  1  0
 24 12  1  0
 25 12  1  0
 26 31  1  0
 27 29  1  0
 28 22  1  0
 29 21  2  0
 30 20  1  0
 31 23  2  0
 32  6  1  0
 33 26  1  0
 34 27  1  0
 13  8  1  0
  6  5  1  0
  9 17  1  0
 27 30  2  0
 26 28  2  0
M  END
>  <ID>  (156) 


>  <MOLENAME>  (156) 
RITANSERIN

>  <therap>  (156) 
antiserotonin

>  <ref>  (156) 
Headache 30:439 (1990); Sleep 16:647 (1993); Prog Neuropsycho Biol Psychiatry 32:1879 (2008)

>  <cas#>  (156) 
87051-43-2

>  <source>  (156) 
synthetic; R-55667

>  <status>  (156) 
USAN, INN, BAN

>  <tradename>  (156) 
TISERTON

>  <SMILES>  (156) 
Cc1c(CCN2CCC(=C(c3ccc(F)cc3)c3ccc(F)cc3)CC2)c(=O)n2ccsc2n1

>  <standardized_failed>  (156) 
False

$$$$

     RDKit          2D

 15 15  0  0  0  0  0  0  0  0999 V2000
    2.4167    0.8625    0.0000 N   0  0  0  0  0  0  0  0  0  0  0  0
    1.7042    1.2708    0.0000 C   0  0  0  0  0  0  0  0  0  0  0  0
    2.4167    0.0375    0.0000 C   0  0  0  0  0  0  0  0  0  0  0  0
    0.9875    0.8583    0.0000 C   0  0  0  0  0  0  0  0  0  0  0  0
    1.7000    2.0958    0.0000 O   0  0  0  0  0  0  0  0  0  0  0  0
    1.7042   -0.3750    0.0000 C   0  0  0  0  0  0  0  0  0  0  0  0
    0.2750    1.2708    0.0000 C   0  0  0  0  0  0  0  0  0  0  0  0
    3.1292    1.2750    0.0000 C   0  0  0  0  0  0  0  0  0  0  0  0
    3.1375   -0.3750    0.0000 C   0  0  0  0  0  0  0  0  0  0  0  0
    0.9917    0.0333    0.0000 C   0  0  0  0  0  0  0  0  0  0  0  0
    1.7042   -1.2042    0.0000 C   0  0  0  0  0  0  0  0  0  0  0  0
   -0.4375    0.8583    0.0000 C   0  0  0  0  0  0  0  0  0  0  0  0
    3.8417    0.8708    0.0000 C   0  0  0  0  0  0  0  0  0  0  0  0
    3.1375   -1.2042    0.0000 C   0  0  0  0  0  0  0  0  0  0  0  0
    2.4167   -1.6167    0.0000 C   0  0  0  0  0  0  0  0  0  0  0  0
  2  1  1  0
  3  1  1  0
  4  2  1  0
  5  2  2  0
  6  3  2  0
  7  4  2  0
  8  1  1  0
  9  3  1  0
 10  6  1  0
 11  6  1  0
 12  7  1  0
 13  8  1  0
 14  9  2  0
 15 14  1  0
 15 11  2  0
M  END
>  <ID>  (157) 


>  <MOLENAME>  (157) 
CROTAMITON

>  <therap>  (157) 
antipruritic, scabicide

>  <ref>  (157) 
Fundam. Clin. Pharmacol. (2003), 17(2), 217-225; Int. J. Dermatol. (1992), 31(5), 357-8; Int. J. Dermatol. (1982), 21(10), 611-3

>  <cas#>  (157) 
483-63-6

>  <source>  (157) 
synthetic

>  <status>  (157) 
USP, INN, BAN, JAN

>  <tradename>  (157) 
EURAX

>  <SMILES>  (157) 
C/C=C/C(=O)N(CC)c1c(C)cccc1

>  <standardized_failed>  (157) 
False

$$$$

     RDKit          2D

 23 25  0  0  0  0  0  0  0  0999 V2000
    4.9667   -2.9333    0.0000 C   0  0  0  0  0  0  0  0  0  0  0  0
    4.1792   -2.6833    0.0000 N   0  0  0  0  0  0  0  0  0  0  0  0
    4.9583   -1.5958    0.0000 N   0  0  0  0  0  0  0  0  0  0  0  0
    5.4500   -2.2625    0.0000 C   0  0  0  0  0  0  0  0  0  0  0  0
    4.1750   -1.8583    0.0000 C   0  0  0  0  0  0  0  0  0  0  0  0
    5.2250   -3.7167    0.0000 C   0  0  0  0  0  0  0  0  0  0  0  0
    4.6792   -4.3333    0.0000 C   0  0  0  0  0  0  0  0  0  0  0  0
    3.4583   -3.1000    0.0000 C   0  0  0  0  0  0  0  0  0  0  0  0
    3.4583   -1.4458    0.0000 C   0  0  0  0  0  0  0  0  0  0  0  0
    6.2750   -2.2583    0.0000 C   0  0  0  0  0  0  0  0  0  0  0  0
    2.7458   -2.6875    0.0000 C   0  0  0  0  0  0  0  0  0  0  0  0
    2.7458   -1.8625    0.0000 C   0  0  0  0  0  0  0  0  0  0  0  0
    4.9375   -5.1167    0.0000 N   0  0  0  0  0  0  0  0  0  0  0  0
    3.8708   -4.1667    0.0000 O   0  0  0  0  0  0  0  0  0  0  0  0
    6.6875   -2.9708    0.0000 C   0  0  0  0  0  0  0  0  0  0  0  0
    6.6750   -1.5417    0.0000 C   0  0  0  0  0  0  0  0  0  0  0  0
    7.5000   -1.5333    0.0000 C   0  0  0  0  0  0  0  0  0  0  0  0
    7.5125   -2.9667    0.0000 C   0  0  0  0  0  0  0  0  0  0  0  0
    7.9208   -2.2500    0.0000 C   0  0  0  0  0  0  0  0  0  0  0  0
    2.0292   -3.1000    0.0000 C   0  0  0  0  0  0  0  0  0  0  0  0
    5.7458   -5.2833    0.0000 C   0  0  0  0  0  0  0  0  0  0  0  0
    4.3875   -5.7333    0.0000 C   0  0  0  0  0  0  0  0  0  0  0  0
    8.7458   -2.2417    0.0000 C   0  0  0  0  0  0  0  0  0  0  0  0
  2  1  1  0
  3  4  1  0
  4  1  2  0
  5  2  1  0
  6  1  1  0
  7  6  1  0
  8  2  1  0
  9  5  1  0
 10  4  1  0
 11  8  2  0
 12  9  2  0
 13  7  1  0
 14  7  2  0
 15 10  2  0
 16 10  1  0
 17 16  2  0
 18 15  1  0
 19 17  1  0
 20 11  1  0
 21 13  1  0
 22 13  1  0
 23 19  1  0
  5  3  2  0
 11 12  1  0
 19 18  2  0
M  END
>  <ID>  (158) 


>  <MOLENAME>  (158) 
ZOLPIDEM

>  <therap>  (158) 
sedative, hypnotic

>  <ref>  (158) 
Drugs 40:291 (1990)

>  <cas#>  (158) 
82626-48-0

>  <source>  (158) 
synthetic; SL-80.0750-23N

>  <status>  (158) 
USAN, INN, BAN

>  <tradename>  (158) 
AMBIEN

>  <SMILES>  (158) 
Cc1ccc(-c2c(CC(=O)N(C)C)n3cc(C)ccc3n2)cc1

>  <standardized_failed>  (158) 
False

$$$$

     RDKit          2D

 23 22  0  0  0  0  0  0  0  0999 V2000
    4.7875   -4.2875    0.0000 O   0  0  0  0  0  0  0  0  0  0  0  0
    4.7875   -3.4625    0.0000 C   0  0  0  0  0  0  0  0  0  0  0  0
    4.0750   -3.0542    0.0000 C   0  0  0  0  0  0  0  0  0  0  0  0
    5.5000   -2.2250    0.0000 C   0  0  0  0  0  0  0  0  0  0  0  0
    4.7875   -1.8167    0.0000 C   0  0  0  0  0  0  0  0  0  0  0  0
    1.9375   -1.8250    0.0000 C   0  0  0  0  0  0  0  0  0  0  0  0
    2.6500   -2.2292    0.0000 C   0  0  0  0  0  0  0  0  0  0  0  0
    3.3625   -1.8167    0.0000 C   0  0  0  0  0  0  0  0  0  0  0  0
    4.0750   -2.2292    0.0000 C   0  0  0  0  0  0  0  0  0  0  0  0
   -1.6250   -2.2417    0.0000 C   0  0  0  0  0  0  0  0  0  0  0  0
   -0.9125   -1.8292    0.0000 C   0  0  0  0  0  0  0  0  0  0  0  0
   -1.6250   -3.0667    0.0000 C   0  0  0  0  0  0  0  0  0  0  0  0
   -0.9125   -3.4792    0.0000 C   0  0  0  0  0  0  0  0  0  0  0  0
   -0.2000   -3.0667    0.0000 C   0  0  0  0  0  0  0  0  0  0  0  0
    0.5125   -3.4750    0.0000 C   0  0  0  0  0  0  0  0  0  0  0  0
    1.2250   -3.0625    0.0000 C   0  0  0  0  0  0  0  0  0  0  0  0
    1.9375   -3.4667    0.0000 C   0  0  0  0  0  0  0  0  0  0  0  0
    2.6500   -3.0542    0.0000 C   0  0  0  0  0  0  0  0  0  0  0  0
    3.3625   -3.4667    0.0000 C   0  0  0  0  0  0  0  0  0  0  0  0
   -0.2000   -2.2417    0.0000 C   0  0  0  0  0  0  0  0  0  0  0  0
    0.5125   -1.8292    0.0000 C   0  0  0  0  0  0  0  0  0  0  0  0
    1.2250   -2.2375    0.0000 C   0  0  0  0  0  0  0  0  0  0  0  0
    6.2125   -1.8125    0.0000 C   0  0  0  0  0  0  0  0  0  0  0  0
  2  1  1  0
  3  2  1  0
  4  5  1  0
  5  9  1  0
  6 22  1  0
  7  6  1  0
  8  7  1  0
  9  8  1  0
 10 12  1  0
 11 10  1  0
 12 13  1  0
 13 14  1  0
 14 15  1  0
 15 16  1  0
 16 17  1  0
 17 18  1  0
 18 19  1  0
 19  3  1  0
 20 11  1  0
 21 20  1  0
 22 21  1  0
 23  4  1  0
M  END
>  <ID>  (159) 


>  <MOLENAME>  (159) 
DOCOSANOL

>  <therap>  (159) 
antiviral

>  <ref>  (159) 
Antiviral Res 40:85 (1998)

>  <cas#>  (159) 
661-19-8

>  <source>  (159) 
Pygeum africanum

>  <status>  (159) 
USAN

>  <tradename>  (159) 
ABREVA

>  <SMILES>  (159) 
CCCCCCCCCCCCCCCCCCCCCCO

>  <standardized_failed>  (159) 
False

$$$$

     RDKit          2D

  9  9  0  0  0  0  0  0  0  0999 V2000
    5.1917   -2.4917    0.0000 C   0  0  0  0  0  0  0  0  0  0  0  0
    3.7667   -3.3250    0.0000 C   0  0  0  0  0  0  0  0  0  0  0  0
    5.1917   -3.3250    0.0000 C   0  0  0  0  0  0  0  0  0  0  0  0
    4.4792   -2.0792    0.0000 C   0  0  0  0  0  0  0  0  0  0  0  0
    4.4792   -3.7375    0.0000 C   0  0  0  0  0  0  0  0  0  0  0  0
    3.7667   -2.5000    0.0000 C   0  0  0  0  0  0  0  0  0  0  0  0
    5.9042   -2.0792    0.0000 O   0  0  0  0  0  0  0  0  0  0  0  0
    3.0500   -3.7375    0.0000 O   0  0  0  0  0  0  0  0  0  0  0  0
    2.3375   -3.3250    0.0000 C   0  0  0  0  0  0  0  0  0  0  0  0
  2  6  1  0
  3  1  2  0
  4  1  1  0
  5  3  1  0
  6  4  2  0
  7  1  1  0
  8  2  1  0
  9  8  1  0
  2  5  2  0
M  END
>  <ID>  (160) 


>  <MOLENAME>  (160) 
MEQUINOL

>  <therap>  (160) 
skin depigmentor

>  <ref>  (160) 
Biopharmaceut Drug Dispo 20:301–308 (1999); J Am Acad Dermatol 42,:459 (2000)

>  <cas#>  (160) 
150-76-5

>  <source>  (160) 
synthetic; BMS-181158

>  <status>  (160) 
USAN, INN

>  <tradename>  (160) 
nan

>  <SMILES>  (160) 
COc1ccc(O)cc1

>  <standardized_failed>  (160) 
False

$$$$

     RDKit          2D

 30 32  0  0  0  0  0  0  0  0999 V2000
    5.2250   -0.3667    0.0000 C   0  0  0  0  0  0  0  0  0  0  0  0
    4.5167   -1.6125    0.0000 N   0  0  0  0  0  0  0  0  0  0  0  0
    3.8000   -0.3750    0.0000 C   0  0  0  0  0  0  0  0  0  0  0  0
    3.8000   -1.2000    0.0000 C   0  0  0  0  0  0  0  0  0  0  0  0
    4.5083    0.0417    0.0000 C   0  0  0  0  0  0  0  0  0  0  0  0
    5.2292   -1.1958    0.0000 C   0  0  0  0  0  0  0  0  0  0  0  0
    3.0833   -1.6167    0.0000 C   0  0  0  0  0  0  0  0  0  0  0  0
    2.3708   -1.2042    0.0000 C   0  0  0  0  0  0  0  0  0  0  0  0
    3.0833    0.0375    0.0000 C   0  0  0  0  0  0  0  0  0  0  0  0
    1.6542   -1.6125    0.0000 N   0  0  0  0  0  0  0  0  0  0  0  0
    5.9375    0.0500    0.0000 C   0  0  0  0  0  0  0  0  0  0  0  0
    2.3708   -0.3750    0.0000 C   0  0  0  0  0  0  0  0  0  0  0  0
    4.5167   -2.4333    0.0000 C   0  0  0  0  0  0  0  0  0  0  0  0
    0.2250   -2.4292    0.0000 N   0  0  0  0  0  0  0  0  0  0  0  0
    4.5042    0.8667    0.0000 O   0  0  0  0  0  0  0  0  0  0  0  0
    0.9417   -1.1958    0.0000 C   0  0  0  0  0  0  0  0  0  0  0  0
    1.6583   -2.4375    0.0000 C   0  0  0  0  0  0  0  0  0  0  0  0
    5.9333    0.8750    0.0000 O   0  0  0  0  0  0  0  0  0  0  0  0
    5.2292   -2.8417    0.0000 C   0  0  0  0  0  0  0  0  0  0  0  0
    3.8000   -2.8458    0.0000 C   0  0  0  0  0  0  0  0  0  0  0  0
    0.2292   -1.6042    0.0000 C   0  0  0  0  0  0  0  0  0  0  0  0
    0.9375   -2.8458    0.0000 C   0  0  0  0  0  0  0  0  0  0  0  0
    1.6583    0.0333    0.0000 F   0  0  0  0  0  0  0  0  0  0  0  0
    6.6542   -0.3583    0.0000 O   0  0  0  0  0  0  0  0  0  0  0  0
    4.5167   -4.0833    0.0000 C   0  0  0  0  0  0  0  0  0  0  0  0
    3.8000   -3.6708    0.0000 C   0  0  0  0  0  0  0  0  0  0  0  0
    5.2333   -3.6625    0.0000 C   0  0  0  0  0  0  0  0  0  0  0  0
    4.5208   -4.9083    0.0000 F   0  0  0  0  0  0  0  0  0  0  0  0
    7.9625   -1.4292    0.0000 Cl  0  0  0  0  0  0  0  0  0  0  0  0
   -0.4917   -2.8375    0.0000 C   0  0  0  0  0  0  0  0  0  0  0  0
  2  6  1  0
  3  5  1  0
  4  3  2  0
  5  1  1  0
  6  1  2  0
  7  4  1  0
  8  7  2  0
  9  3  1  0
 10  8  1  0
 11  1  1  0
 12  9  2  0
 13  2  1  0
 14 22  1  0
 15  5  2  0
 16 10  1  0
 17 10  1  0
 18 11  2  0
 19 13  2  0
 20 13  1  0
 21 16  1  0
 22 17  1  0
 23 12  1  0
 24 11  1  0
 25 26  1  0
 26 20  2  0
 27 19  1  0
 28 25  1  0
 30 14  1  0
  2  4  1  0
  8 12  1  0
 27 25  2  0
 14 21  1  0
M  END
>  <ID>  (161) 


>  <MOLENAME>  (161) 
DIFLOXACIN HYDROCHLORIDE

>  <therap>  (161) 
antibacterial, DNA gyrase inhibitor

>  <ref>  (161) 
Antimicrob Agents Chemother 29:193 (1986); 30:689 (1986

>  <cas#>  (161) 
91296-86-5

>  <source>  (161) 
synthetic; Abbott-56619

>  <status>  (161) 
USAN, INN

>  <tradename>  (161) 
DICURAL

>  <SMILES>  (161) 
CN1CCN(c2cc3c(cc2F)c(=O)c(C(=O)O)cn3-c2ccc(F)cc2)CC1

>  <standardized_failed>  (161) 
False

$$$$

     RDKit          2D

 34 37  0  0  0  0  0  0  0  0999 V2000
    5.3417   -3.6042    0.0000 C   0  0  0  0  0  0  0  0  0  0  0  0
    3.9167   -4.4375    0.0000 C   0  0  0  0  0  0  0  0  0  0  0  0
    6.1292   -3.3500    0.0000 C   0  0  0  0  0  0  0  0  0  0  0  0
    3.2000   -4.8542    0.0000 C   0  0  0  0  0  0  0  0  0  0  0  0
    5.3417   -4.4292    0.0000 C   0  0  0  0  0  0  0  0  0  0  0  0
    4.6292   -4.8417    0.0000 C   0  0  0  0  0  0  0  0  0  0  0  0
    3.2042   -5.6750    0.0000 C   0  0  0  0  0  0  0  0  0  0  0  0
    3.9125   -3.6125    0.0000 C   0  0  0  0  0  0  0  0  0  0  0  0
    4.6292   -3.1917    0.0000 C   0  0  0  0  0  0  0  0  0  0  0  0
    6.6125   -4.0167    0.0000 C   0  0  0  0  0  0  0  0  0  0  0  0
    2.4792   -4.4417    0.0000 C   0  0  0  0  0  0  0  0  0  0  0  0
    6.1375   -4.6792    0.0000 C   0  0  0  0  0  0  0  0  0  0  0  0
    2.4875   -6.0917    0.0000 C   0  0  0  0  0  0  0  0  0  0  0  0
    5.9167   -2.4667    0.0000 C   0  0  0  0  0  0  0  0  0  0  0  0
    6.9500   -3.3667    0.0000 O   0  0  0  0  0  0  0  0  0  0  0  0
    4.6292   -5.6750    0.0000 C   0  0  0  0  0  0  0  0  0  0  0  0
    1.7667   -4.8542    0.0000 C   0  0  0  0  0  0  0  0  0  0  0  0
    1.7667   -5.6792    0.0000 C   0  0  0  0  0  0  0  0  0  0  0  0
    7.6167   -2.8875    0.0000 C   0  0  0  0  0  0  0  0  0  0  0  0
    3.9167   -6.0875    0.0000 C   0  0  0  0  0  0  0  0  0  0  0  0
    3.9167   -5.2625    0.0000 F   0  0  0  0  0  0  0  0  0  0  0  0
    5.0875   -2.1542    0.0000 O   0  0  0  0  0  0  0  0  0  0  0  0
    7.7125   -2.2542    0.0000 O   0  0  0  0  0  0  0  0  0  0  0  0
    1.0542   -6.1000    0.0000 O   0  0  0  0  0  0  0  0  0  0  0  0
    5.3417   -2.7792    0.0000 C   0  0  0  0  0  0  0  0  0  0  0  0
    3.1917   -3.2000    0.0000 O   0  0  0  0  0  0  0  0  0  0  0  0
    3.1917   -4.0250    0.0000 C   0  0  0  0  0  0  0  0  0  0  0  0
    7.4375   -4.4000    0.0000 C   0  0  0  0  0  0  0  0  0  0  0  0
    6.4250   -1.9167    0.0000 C   0  0  0  0  0  0  0  0  0  0  0  0
    6.2417   -0.9750    0.0000 O   0  0  0  0  0  0  0  0  0  0  0  0
    8.3667   -3.2292    0.0000 C   0  0  0  0  0  0  0  0  0  0  0  0
    9.0417   -2.7542    0.0000 C   0  0  0  0  0  0  0  0  0  0  0  0
    9.7917   -3.1000    0.0000 C   0  0  0  0  0  0  0  0  0  0  0  0
   10.4750   -2.6167    0.0000 C   0  0  0  0  0  0  0  0  0  0  0  0
  2  8  1  0
  3  1  1  0
  4  2  1  0
  5  1  1  0
  6  5  1  0
  7  4  1  0
  8  9  1  0
  9  1  1  0
 10  3  1  0
 11  4  1  0
 12  5  1  0
 13  7  2  0
  3 14  1  0
  3 15  1  6
 16  6  1  0
 17 11  2  0
 18 17  1  0
 19 15  1  0
 20 16  1  0
  2 21  1  6
 22 14  2  0
 23 19  2  0
 24 18  2  0
  1 25  1  1
 26  8  1  0
  4 27  1  1
 10 28  1  1
 29 14  1  0
 30 29  1  0
 31 19  1  0
 32 31  1  0
 33 32  1  0
 34 33  1  0
 10 12  1  0
  2  6  1  0
 20  7  1  0
 13 18  1  0
M  END
>  <ID>  (162) 


>  <MOLENAME>  (162) 
BETAMETHASONE VALERATE

>  <therap>  (162) 
glucocorticoid

>  <ref>  (162) 
Arch Disease Childhood 48:856 (1973); Postgrad Med J 50 Suppl 4:50 (1974); 53:315 (1977)

>  <cas#>  (162) 
2152-44-5

>  <source>  (162) 
semisynthetic

>  <status>  (162) 
USP, INN, BAN, JAN

>  <tradename>  (162) 
BETA-VAL

>  <SMILES>  (162) 
CCCCC(=O)O[C@]1(C(=O)CO)[C@@H](C)CC2C3CCC4=CC(=O)C=C[C@]4(C)[C@@]3(F)C(O)C[C@@]21C

>  <standardized_failed>  (162) 
False

$$$$

     RDKit          2D

 51 53  0  0  0  0  0  0  0  0999 V2000
    4.2500   -1.8250    0.0000 C   0  0  0  0  0  0  0  0  0  0  0  0
    1.4250   -1.6917    0.0000 C   0  0  0  0  0  0  0  0  0  0  0  0
   -0.0708   -1.0167    0.0000 C   0  0  0  0  0  0  0  0  0  0  0  0
   -1.1083    0.9583    0.0000 C   0  0  0  0  0  0  0  0  0  0  0  0
    0.7167   -1.2542    0.0000 C   0  0  0  0  0  0  0  0  0  0  0  0
    4.9667   -1.4167    0.0000 C   0  0  0  0  0  0  0  0  0  0  0  0
    2.7667   -1.0542    0.0000 C   0  0  0  0  0  0  0  0  0  0  0  0
    2.2542   -1.6917    0.0000 C   0  0  0  0  0  0  0  0  0  0  0  0
    0.2250    1.4875    0.0000 C   0  0  0  0  0  0  0  0  0  0  0  0
   -0.5708   -0.3667    0.0000 O   0  0  0  0  0  0  0  0  0  0  0  0
   -0.5958    1.6083    0.0000 C   0  0  0  0  0  0  0  0  0  0  0  0
    0.5292    0.7250    0.0000 C   0  0  0  0  0  0  0  0  0  0  0  0
    3.5292   -1.4292    0.0000 O   0  0  0  0  0  0  0  0  0  0  0  0
    0.6292   -4.5000    0.0000 C   0  0  0  0  0  0  0  0  0  0  0  0
    5.6792   -1.8292    0.0000 C   0  0  0  0  0  0  0  0  0  0  0  0
    2.4667   -0.2875    0.0000 C   0  0  0  0  0  0  0  0  0  0  0  0
    0.6292   -3.0667    0.0000 C   0  0  0  0  0  0  0  0  0  0  0  0
    1.0417   -3.7792    0.0000 C   0  0  0  0  0  0  0  0  0  0  0  0
    4.2500   -2.6375    0.0000 O   0  0  0  0  0  0  0  0  0  0  0  0
   -0.2000   -3.0667    0.0000 O   0  0  0  0  0  0  0  0  0  0  0  0
   -1.2208    0.1375    0.0000 C   0  0  0  0  0  0  0  0  0  0  0  0
   -0.1958   -4.5042    0.0000 C   0  0  0  0  0  0  0  0  0  0  0  0
    1.0375   -2.3542    0.0000 O   0  0  0  0  0  0  0  0  0  0  0  0
   -0.6125   -3.7917    0.0000 C   0  0  0  0  0  0  0  0  0  0  0  0
    1.3417    0.6083    0.0000 C   0  0  0  0  0  0  0  0  0  0  0  0
    1.6500   -0.1542    0.0000 C   0  0  0  0  0  0  0  0  0  0  0  0
    5.6792   -2.6542    0.0000 C   0  0  0  0  0  0  0  0  0  0  0  0
    6.3875   -1.4292    0.0000 N   0  0  0  0  0  0  0  0  0  0  0  0
   -0.5458   -1.7167    0.0000 O   0  0  0  0  0  0  0  0  0  0  0  0
    4.9667   -3.0667    0.0000 C   0  0  0  0  0  0  0  0  0  0  0  0
    0.0125    0.0708    0.0000 O   0  0  0  0  0  0  0  0  0  0  0  0
   -1.7583    1.4583    0.0000 O   0  0  0  0  0  0  0  0  0  0  0  0
    4.9792   -0.5792    0.0000 O   0  0  0  0  0  0  0  0  0  0  0  0
    3.2667   -0.1167    0.0000 O   0  0  0  0  0  0  0  0  0  0  0  0
   -0.9083    2.3750    0.0000 O   0  0  0  0  0  0  0  0  0  0  0  0
    0.2167   -5.2542    0.0000 O   0  0  0  0  0  0  0  0  0  0  0  0
   -0.6083   -5.2167    0.0000 O   0  0  0  0  0  0  0  0  0  0  0  0
   -1.8625    0.6458    0.0000 C   0  0  0  0  0  0  0  0  0  0  0  0
    1.0375   -0.4625    0.0000 C   0  0  0  0  0  0  0  0  0  0  0  0
    2.6167   -2.4417    0.0000 C   0  0  0  0  0  0  0  0  0  0  0  0
    0.7417    2.1458    0.0000 C   0  0  0  0  0  0  0  0  0  0  0  0
    1.2375   -5.0292    0.0000 C   0  0  0  0  0  0  0  0  0  0  0  0
    2.7292    0.4958    0.0000 C   0  0  0  0  0  0  0  0  0  0  0  0
   -1.9875   -0.1750    0.0000 C   0  0  0  0  0  0  0  0  0  0  0  0
   -1.4458   -3.8000    0.0000 C   0  0  0  0  0  0  0  0  0  0  0  0
    1.8625    1.2583    0.0000 C   0  0  0  0  0  0  0  0  0  0  0  0
    6.3917   -0.6042    0.0000 C   0  0  0  0  0  0  0  0  0  0  0  0
    7.0875   -1.8375    0.0000 C   0  0  0  0  0  0  0  0  0  0  0  0
    4.9542   -3.8917    0.0000 C   0  0  0  0  0  0  0  0  0  0  0  0
    0.6292   -5.9750    0.0000 C   0  0  0  0  0  0  0  0  0  0  0  0
   -2.1083   -0.9917    0.0000 C   0  0  0  0  0  0  0  0  0  0  0  0
  2  8  1  0
  3  5  1  0
  4 11  1  0
  5  2  1  0
  6  1  1  0
  7 13  1  6
  8  7  1  0
  9 12  1  0
 10  3  1  0
 11  9  1  0
 12 25  1  0
  1 13  1  1
 14 18  1  0
 15  6  1  0
 16  7  1  0
 17 23  1  1
 18 17  1  0
 19  1  1  0
 20 17  1  0
 21 10  1  0
 22 24  1  0
  2 23  1  6
 24 20  1  0
 25 26  1  0
 26 16  1  0
 27 30  1  0
 15 28  1  1
 29  3  2  0
 30 19  1  0
 31 12  2  0
  4 32  1  0
  6 33  1  6
 16 34  1  0
 11 35  1  6
 14 36  1  0
 22 37  1  1
  4 38  1  6
  5 39  1  6
  8 40  1  1
  9 41  1  1
 14 42  1  6
 16 43  1  6
 21 44  1  6
 24 45  1  6
 25 46  1  6
 47 28  1  0
 48 28  1  0
 30 49  1  1
 50 36  1  0
 51 44  1  0
 15 27  1  0
 21  4  1  0
 14 22  1  0
M  END
>  <ID>  (163) 


>  <MOLENAME>  (163) 
ERYTHROMYCIN

>  <therap>  (163) 
antibacterial

>  <ref>  (163) 
Antibiot. Chemother. (1971), 17, 52-66; Tet. Lett. (1965), (11), 679-85; Antibiot. Chemother. (1952), 2, 281-3

>  <cas#>  (163) 
114-07-8

>  <source>  (163) 
Streptomyces erythreus

>  <status>  (163) 
USP, INN, BAN, JAN

>  <tradename>  (163) 
ERYDERM

>  <SMILES>  (163) 
CC[C@H]1OC(=O)[C@H](C)[C@@H](O[C@H]2C[C@@](C)(OC)[C@@H](O)[C@H](C)O2)[C@H](C)[C@@H](O[C@@H]2O[C@H](C)C[C@H](N(C)C)[C@H]2O)[C@](C)(O)C[C@@H](C)C(=O)[C@H](C)[C@@H](O)[C@]1(C)O

>  <standardized_failed>  (163) 
False

$$$$

     RDKit          2D

 23 25  0  0  0  0  0  0  0  0999 V2000
    4.5792   -0.0792    0.0000 C   0  0  0  0  0  0  0  0  0  0  0  0
    3.8792   -0.4042    0.0000 C   0  0  0  0  0  0  0  0  0  0  0  0
    5.2625   -0.4292    0.0000 C   0  0  0  0  0  0  0  0  0  0  0  0
    4.5917    0.6875    0.0000 C   0  0  0  0  0  0  0  0  0  0  0  0
    4.1875   -1.5917    0.0000 C   0  0  0  0  0  0  0  0  0  0  0  0
    4.9292   -1.5917    0.0000 C   0  0  0  0  0  0  0  0  0  0  0  0
    4.6292    2.2125    0.0000 N   0  0  0  0  0  0  0  0  0  0  0  0
    3.7375   -1.1250    0.0000 C   0  0  0  0  0  0  0  0  0  0  0  0
    5.3750   -1.1417    0.0000 C   0  0  0  0  0  0  0  0  0  0  0  0
    5.2667    1.0583    0.0000 C   0  0  0  0  0  0  0  0  0  0  0  0
    3.9417    1.0833    0.0000 C   0  0  0  0  0  0  0  0  0  0  0  0
    3.9625    1.8458    0.0000 C   0  0  0  0  0  0  0  0  0  0  0  0
    5.2875    1.8125    0.0000 C   0  0  0  0  0  0  0  0  0  0  0  0
    7.9625    0.2500    0.0000 Cl  0  0  0  0  0  0  0  0  0  0  0  0
    5.8167    0.0333    0.0000 C   0  0  0  0  0  0  0  0  0  0  0  0
    3.3250    0.0750    0.0000 C   0  0  0  0  0  0  0  0  0  0  0  0
    4.6542    2.9833    0.0000 C   0  0  0  0  0  0  0  0  0  0  0  0
    6.0542   -1.4042    0.0000 C   0  0  0  0  0  0  0  0  0  0  0  0
    3.0500   -1.3625    0.0000 C   0  0  0  0  0  0  0  0  0  0  0  0
    6.5000   -0.2167    0.0000 C   0  0  0  0  0  0  0  0  0  0  0  0
    2.6292   -0.1667    0.0000 C   0  0  0  0  0  0  0  0  0  0  0  0
    2.5000   -0.8875    0.0000 C   0  0  0  0  0  0  0  0  0  0  0  0
    6.6167   -0.9417    0.0000 C   0  0  0  0  0  0  0  0  0  0  0  0
  2  1  1  0
  3  1  1  0
  4  1  2  0
  5  8  1  0
  6  9  1  0
  7 12  1  0
  8  2  2  0
  9  3  2  0
 10  4  1  0
 11  4  1  0
 12 11  1  0
 13 10  1  0
 15  3  1  0
 16  2  1  0
 17  7  1  0
 18  9  1  0
 19  8  1  0
 20 15  2  0
 21 16  2  0
 22 21  1  0
 23 20  1  0
  7 13  1  0
  6  5  2  0
 23 18  2  0
 19 22  2  0
M  END
>  <ID>  (164) 


>  <MOLENAME>  (164) 
CYPROHEPTADINE HYDROCHLORIDE

>  <therap>  (164) 
H1-antihistamine, antipruritic

>  <ref>  (164) 
Endocrinology (1981), 108(4), 1115-24; Arch. Int. Pharmacodyn. Ther. (1964), 148, 135-71; J. Pharmacol. Exp. Ther. (1947), 89(3), 247-55

>  <cas#>  (164) 
41354-29-4

>  <source>  (164) 
synthetic

>  <status>  (164) 
USP, INN, BAN, JAN

>  <tradename>  (164) 
PERIACTIN

>  <SMILES>  (164) 
CN1CCC(=C2c3c(C=Cc4c2cccc4)cccc3)CC1

>  <standardized_failed>  (164) 
False

$$$$

     RDKit          2D

 23 24  0  0  0  0  0  0  0  0999 V2000
    2.7917    0.6833    0.0000 C   0  0  0  0  0  0  0  0  0  0  0  0
    2.3792   -0.0292    0.0000 C   0  0  0  0  0  0  0  0  0  0  0  0
    3.6167    0.6833    0.0000 C   0  0  0  0  0  0  0  0  0  0  0  0
    5.2667   -2.1792    0.0000 C   0  0  0  0  0  0  0  0  0  0  0  0
    2.3792    1.3958    0.0000 O   0  0  0  0  0  0  0  0  0  0  0  0
    3.6167   -0.7417    0.0000 C   0  0  0  0  0  0  0  0  0  0  0  0
    0.3167    2.1083    0.0000 C   0  0  0  0  0  0  0  0  0  0  0  0
    1.1417    2.1083    0.0000 C   0  0  0  0  0  0  0  0  0  0  0  0
    4.8542   -1.4542    0.0000 C   0  0  0  0  0  0  0  0  0  0  0  0
    4.0292   -0.0292    0.0000 C   0  0  0  0  0  0  0  0  0  0  0  0
    2.7917   -0.7417    0.0000 C   0  0  0  0  0  0  0  0  0  0  0  0
    1.5542    1.3958    0.0000 C   0  0  0  0  0  0  0  0  0  0  0  0
    4.0292   -1.4542    0.0000 C   0  0  0  0  0  0  0  0  0  0  0  0
   -0.0958    1.3958    0.0000 C   0  0  0  0  0  0  0  0  0  0  0  0
    4.8542   -2.8917    0.0000 O   0  0  0  0  0  0  0  0  0  0  0  0
    0.3167    0.6833    0.0000 C   0  0  0  0  0  0  0  0  0  0  0  0
    4.0167    1.3958    0.0000 I   0  0  0  0  0  0  0  0  0  0  0  0
    1.5542   -0.0292    0.0000 I   0  0  0  0  0  0  0  0  0  0  0  0
   -0.0958    2.8208    0.0000 I   0  0  0  0  0  0  0  0  0  0  0  0
    5.2667   -0.7417    0.0000 N   0  0  0  0  0  0  0  0  0  0  0  0
    6.0917   -2.1792    0.0000 O   0  0  0  0  0  0  0  0  0  0  0  0
    1.1417    0.6833    0.0000 C   0  0  0  0  0  0  0  0  0  0  0  0
   -0.9208    1.3958    0.0000 O   0  0  0  0  0  0  0  0  0  0  0  0
  2  1  2  0
  3  1  1  0
  4  9  1  0
  5  1  1  0
  6 10  1  0
  7  8  2  0
  8 12  1  0
  9 13  1  0
 10  3  2  0
 11  2  1  0
 12  5  1  0
 13  6  1  0
 14 16  2  0
 15  4  2  0
 16 22  1  0
 17  3  1  0
 18  2  1  0
 19  7  1  0
  9 20  1  1
 21  4  1  0
 22 12  2  0
 23 14  1  0
  6 11  2  0
 14  7  1  0
M  END
>  <ID>  (165) 


>  <MOLENAME>  (165) 
LIOTHYRONINE

>  <therap>  (165) 
thyroid hormone blocker, antidepressant

>  <ref>  (165) 
Ann Thora Surg 56:S2 (1993); Arch Gen Psychiatry 53:842 (1996)

>  <cas#>  (165) 
6893-02-3

>  <source>  (165) 
semisynthetic

>  <status>  (165) 
USP, BAN, JAN

>  <tradename>  (165) 
nan

>  <SMILES>  (165) 
N[C@H](Cc1cc(I)c(Oc2ccc(O)c(I)c2)c(I)c1)C(=O)O

>  <standardized_failed>  (165) 
False

$$$$

     RDKit          2D

 13 14  0  0  0  0  0  0  0  0999 V2000
    5.8042  -11.2792    0.0000 N   0  0  0  0  0  0  0  0  0  0  0  0
    6.5167  -10.8667    0.0000 C   0  0  0  0  0  0  0  0  0  0  0  0
    5.0917  -10.0417    0.0000 N   0  0  0  0  0  0  0  0  0  0  0  0
    5.0917  -10.8667    0.0000 C   0  0  0  0  0  0  0  0  0  0  0  0
    6.5167  -10.0417    0.0000 C   0  0  0  0  0  0  0  0  0  0  0  0
    5.8042   -9.6292    0.0000 C   0  0  0  0  0  0  0  0  0  0  0  0
    7.3042  -11.1167    0.0000 N   0  0  0  0  0  0  0  0  0  0  0  0
    7.3042   -9.7875    0.0000 N   0  0  0  0  0  0  0  0  0  0  0  0
    7.7875  -10.4500    0.0000 C   0  0  0  0  0  0  0  0  0  0  0  0
    4.3667  -11.2792    0.0000 O   0  0  0  0  0  0  0  0  0  0  0  0
    5.8042   -8.8042    0.0000 O   0  0  0  0  0  0  0  0  0  0  0  0
    5.8042  -12.1042    0.0000 C   0  0  0  0  0  0  0  0  0  0  0  0
    4.3667   -9.6167    0.0000 C   0  0  0  0  0  0  0  0  0  0  0  0
  2  1  1  0
  3  4  1  0
  4  1  1  0
  5  2  2  0
  6  3  1  0
  7  2  1  0
  8  5  1  0
  9  7  2  0
 10  4  2  0
 11  6  2  0
 12  1  1  0
 13  3  1  0
  6  5  1  0
  8  9  1  0
M  END
>  <ID>  (166) 


>  <MOLENAME>  (166) 
THEOPHYLLINE

>  <therap>  (166) 
bronchodilator

>  <ref>  (166) 
Anal Profiles Drug Subs 4:466 (1975); Crit Care Clin 7:639 (1991)

>  <cas#>  (166) 
5967-84-0, 58-55-9 [anhydrous]

>  <source>  (166) 
Camelia thea, Paullinia cupana

>  <status>  (166) 
USP, BAN, JAN

>  <tradename>  (166) 
ELIXOPHYLLIN

>  <SMILES>  (166) 
Cn1c(=O)c2c(nc[nH]2)n(C)c1=O

>  <standardized_failed>  (166) 
False

$$$$

     RDKit          2D

 22 24  0  0  0  0  0  0  0  0999 V2000
    3.9042   -0.1375    0.0000 C   0  0  0  0  0  0  0  0  0  0  0  0
    3.2542    0.2375    0.0000 N   0  0  0  0  0  0  0  0  0  0  0  0
    3.2542    0.9875    0.0000 C   0  0  0  0  0  0  0  0  0  0  0  0
    3.9125   -0.8875    0.0000 O   0  0  0  0  0  0  0  0  0  0  0  0
    4.5542    0.2375    0.0000 S   0  0  0  0  0  0  0  0  0  0  0  0
    4.5625   -1.2667    0.0000 C   0  0  0  0  0  0  0  0  0  0  0  0
    5.8542   -1.2667    0.0000 C   0  0  0  0  0  0  0  0  0  0  0  0
    2.6042    1.3625    0.0000 C   0  0  0  0  0  0  0  0  0  0  0  0
    5.2125   -0.8917    0.0000 C   0  0  0  0  0  0  0  0  0  0  0  0
    5.8542   -2.0167    0.0000 C   0  0  0  0  0  0  0  0  0  0  0  0
    5.2125   -2.3917    0.0000 C   0  0  0  0  0  0  0  0  0  0  0  0
    4.5625   -2.0167    0.0000 C   0  0  0  0  0  0  0  0  0  0  0  0
    2.6042    2.1125    0.0000 C   0  0  0  0  0  0  0  0  0  0  0  0
    3.9042    1.3625    0.0000 C   0  0  0  0  0  0  0  0  0  0  0  0
    2.6125   -0.1375    0.0000 C   0  0  0  0  0  0  0  0  0  0  0  0
    3.9042    2.1125    0.0000 C   0  0  0  0  0  0  0  0  0  0  0  0
    6.5042   -0.8917    0.0000 C   0  0  0  0  0  0  0  0  0  0  0  0
    3.2542    2.4875    0.0000 C   0  0  0  0  0  0  0  0  0  0  0  0
    6.5042   -2.3917    0.0000 C   0  0  0  0  0  0  0  0  0  0  0  0
    1.9542    2.4958    0.0000 C   0  0  0  0  0  0  0  0  0  0  0  0
    7.1542   -1.2667    0.0000 C   0  0  0  0  0  0  0  0  0  0  0  0
    7.1542   -2.0167    0.0000 C   0  0  0  0  0  0  0  0  0  0  0  0
  2  1  1  0
  3  2  1  0
  4  1  1  0
  5  1  2  0
  6  4  1  0
  7  9  2  0
  8  3  2  0
  9  6  1  0
 10 11  2  0
 11 12  1  0
 12  6  2  0
 13  8  1  0
 14  3  1  0
 15  2  1  0
 16 14  2  0
 17  7  1  0
 18 16  1  0
 19 10  1  0
 20 13  1  0
 21 17  2  0
 22 19  2  0
  7 10  1  0
 13 18  2  0
 21 22  1  0
M  END
>  <ID>  (167) 


>  <MOLENAME>  (167) 
TOLNAFTATE

>  <therap>  (167) 
antifungal

>  <ref>  (167) 
Antimicrob Agents Chemother 1962:259; Tox Appl Pharmacol 8:368, 380 (1966) 

>  <cas#>  (167) 
2398-96-1

>  <source>  (167) 
synthetic; SCH-10144

>  <status>  (167) 
USP, INN, BAN, JAN

>  <tradename>  (167) 
TINACTIN

>  <SMILES>  (167) 
Cc1cccc(N(C)C(=S)Oc2ccc3ccccc3c2)c1

>  <standardized_failed>  (167) 
False

$$$$

     RDKit          2D

 29 29  0  0  0  0  0  0  0  0999 V2000
    4.8792   -7.9042    0.0000 C   0  0  0  0  0  0  0  0  0  0  0  0
    4.8792   -6.4042    0.0000 C   0  0  0  0  0  0  0  0  0  0  0  0
    4.8792   -5.6542    0.0000 C   0  0  0  0  0  0  0  0  0  0  0  0
    4.2375   -7.5292    0.0000 C   0  0  0  0  0  0  0  0  0  0  0  0
    5.5292   -7.5292    0.0000 C   0  0  0  0  0  0  0  0  0  0  0  0
    4.2375   -6.7792    0.0000 C   0  0  0  0  0  0  0  0  0  0  0  0
    5.5292   -6.7792    0.0000 C   0  0  0  0  0  0  0  0  0  0  0  0
    5.5292   -5.2792    0.0000 N   0  0  0  0  0  0  0  0  0  0  0  0
    4.2292   -5.2792    0.0000 O   0  0  0  0  0  0  0  0  0  0  0  0
    5.5292   -4.5292    0.0000 C   0  0  0  0  0  0  0  0  0  0  0  0
    4.8792   -8.6542    0.0000 O   0  0  0  0  0  0  0  0  0  0  0  0
    6.1875   -7.9042    0.0000 O   0  0  0  0  0  0  0  0  0  0  0  0
    3.5792   -7.9125    0.0000 O   0  0  0  0  0  0  0  0  0  0  0  0
    8.7667   -1.1500    0.0000 N   0  0  0  0  0  0  0  0  0  0  0  0
    6.1750   -4.1542    0.0000 C   0  0  0  0  0  0  0  0  0  0  0  0
    7.4667   -3.4042    0.0000 C   0  0  0  0  0  0  0  0  0  0  0  0
    9.7292   -2.4375    0.0000 Cl  0  0  0  0  0  0  0  0  0  0  0  0
    6.1750   -3.4042    0.0000 C   0  0  0  0  0  0  0  0  0  0  0  0
    6.8167   -4.5292    0.0000 C   0  0  0  0  0  0  0  0  0  0  0  0
    7.4667   -4.1542    0.0000 C   0  0  0  0  0  0  0  0  0  0  0  0
    6.8167   -3.0292    0.0000 C   0  0  0  0  0  0  0  0  0  0  0  0
    8.1250   -3.0292    0.0000 O   0  0  0  0  0  0  0  0  0  0  0  0
    8.1250   -2.2667    0.0000 C   0  0  0  0  0  0  0  0  0  0  0  0
    8.7667   -1.8917    0.0000 C   0  0  0  0  0  0  0  0  0  0  0  0
    8.1167   -0.7750    0.0000 C   0  0  0  0  0  0  0  0  0  0  0  0
    9.4167   -0.7750    0.0000 C   0  0  0  0  0  0  0  0  0  0  0  0
    5.5292   -9.0292    0.0000 C   0  0  0  0  0  0  0  0  0  0  0  0
    6.1875   -8.6542    0.0000 C   0  0  0  0  0  0  0  0  0  0  0  0
    2.9292   -7.5417    0.0000 C   0  0  0  0  0  0  0  0  0  0  0  0
  2  7  1  0
  3  2  1  0
  4  1  2  0
  5  1  1  0
  6  4  1  0
  7  5  2  0
  8  3  1  0
  9  3  2  0
 10  8  1  0
 11  1  1  0
 12  5  1  0
 13  4  1  0
 14 24  1  0
 15 10  1  0
 16 21  2  0
 18 15  2  0
 19 15  1  0
 20 19  2  0
 21 18  1  0
 22 16  1  0
 23 22  1  0
 24 23  1  0
 25 14  1  0
 26 14  1  0
 27 11  1  0
 28 12  1  0
 29 13  1  0
  2  6  2  0
 20 16  1  0
M  END
>  <ID>  (168) 


>  <MOLENAME>  (168) 
TRIMETHOBENZAMIDE HYDROCHLORIDE

>  <therap>  (168) 
antiemetic

>  <ref>  (168) 
Anal Profiles Drug Subs 2:551 (1973)

>  <cas#>  (168) 
554-92-7, 138-56-7 [trimethobenzamide]

>  <source>  (168) 
synthetic

>  <status>  (168) 
USP, INN

>  <tradename>  (168) 
TIGAN

>  <SMILES>  (168) 
COc1cc(C(=O)NCc2ccc(OCCN(C)C)cc2)cc(OC)c1OC

>  <standardized_failed>  (168) 
False

$$$$

     RDKit          2D

 34 36  0  0  0  0  0  0  0  0999 V2000
    5.5292   -2.0750    0.0000 N   0  0  0  0  0  0  0  0  0  0  0  0
    4.7167   -2.2167    0.0000 C   0  0  0  0  0  0  0  0  0  0  0  0
    4.8667   -3.0292    0.0000 C   0  0  0  0  0  0  0  0  0  0  0  0
    5.6792   -2.8875    0.0000 C   0  0  0  0  0  0  0  0  0  0  0  0
    8.9792   -1.0500    0.0000 C   0  0  0  0  0  0  0  0  0  0  0  0
    6.1667   -1.5500    0.0000 C   0  0  0  0  0  0  0  0  0  0  0  0
    8.9167   -0.2292    0.0000 N   0  0  0  0  0  0  0  0  0  0  0  0
    9.7792   -1.2500    0.0000 N   0  0  0  0  0  0  0  0  0  0  0  0
   10.2167   -0.5500    0.0000 N   0  0  0  0  0  0  0  0  0  0  0  0
    9.6792    0.0750    0.0000 N   0  0  0  0  0  0  0  0  0  0  0  0
    4.3792   -3.7125    0.0000 N   0  0  0  0  0  0  0  0  0  0  0  0
    6.4542   -3.1750    0.0000 S   0  0  0  0  0  0  0  0  0  0  0  0
    6.9292   -1.8375    0.0000 C   0  0  0  0  0  0  0  0  0  0  0  0
    4.7292   -4.4625    0.0000 C   0  0  0  0  0  0  0  0  0  0  0  0
    6.0167   -0.7375    0.0000 C   0  0  0  0  0  0  0  0  0  0  0  0
    8.3417   -1.5792    0.0000 S   0  0  0  0  0  0  0  0  0  0  0  0
    7.0792   -2.6417    0.0000 C   0  0  0  0  0  0  0  0  0  0  0  0
    4.2542   -5.1375    0.0000 C   0  0  0  0  0  0  0  0  0  0  0  0
    4.0292   -1.7417    0.0000 O   0  0  0  0  0  0  0  0  0  0  0  0
    7.5667   -1.3000    0.0000 C   0  0  0  0  0  0  0  0  0  0  0  0
    5.5542   -4.5375    0.0000 O   0  0  0  0  0  0  0  0  0  0  0  0
    6.6542   -0.2125    0.0000 O   0  0  0  0  0  0  0  0  0  0  0  0
    2.9667   -5.7375    0.0000 C   0  0  0  0  0  0  0  0  0  0  0  0
    5.2542   -0.4542    0.0000 O   0  0  0  0  0  0  0  0  0  0  0  0
    2.1417   -5.6625    0.0000 O   0  0  0  0  0  0  0  0  0  0  0  0
    4.6042   -5.8875    0.0000 C   0  0  0  0  0  0  0  0  0  0  0  0
    3.4417   -5.0625    0.0000 O   0  0  0  0  0  0  0  0  0  0  0  0
    8.2167    0.2083    0.0000 C   0  0  0  0  0  0  0  0  0  0  0  0
    5.6125    0.6250    0.0000 Na  0  0  0  0  0 15  0  0  0  0  0  0
    5.4292   -5.9500    0.0000 C   0  0  0  0  0  0  0  0  0  0  0  0
    4.1292   -6.5625    0.0000 C   0  0  0  0  0  0  0  0  0  0  0  0
    4.4792   -7.3042    0.0000 C   0  0  0  0  0  0  0  0  0  0  0  0
    5.7792   -6.7000    0.0000 C   0  0  0  0  0  0  0  0  0  0  0  0
    5.3042   -7.3792    0.0000 C   0  0  0  0  0  0  0  0  0  0  0  0
  2  1  1  0
  3  4  1  0
  4  1  1  0
  5 16  1  0
  6  1  1  0
  7  5  1  0
  8  5  2  0
  9  8  1  0
 10  7  1  0
 11  3  1  0
 12  4  1  0
 13  6  2  0
 14 11  1  0
 15  6  1  0
 16 20  1  0
 17 13  1  0
 18 14  1  0
 19  2  2  0
 20 13  1  0
 21 14  2  0
 22 15  1  0
 23 27  1  0
 24 15  2  0
 25 23  2  0
 26 18  1  0
 27 18  1  0
 28  7  1  0
 30 26  2  0
 31 26  1  0
 32 31  2  0
 33 30  1  0
 34 33  2  0
  2  3  1  0
 12 17  1  0
  9 10  2  0
 32 34  1  0
M  CHG  2  22  -1  29   1
M  END
>  <ID>  (169) 


>  <MOLENAME>  (169) 
CEFAMANDOLE NAFATE

>  <therap>  (169) 
antibacterial

>  <ref>  (169) 
Antimicrob Agents Chemother 1:221 (1972); 3:657 (1973); 10:814 (1976)

>  <cas#>  (169) 
42540-40-9, 34444-01-4 [cefamandole]

>  <source>  (169) 
semisynthetic

>  <status>  (169) 
USP, BAN

>  <tradename>  (169) 
MANDOL

>  <SMILES>  (169) 
Cn1nnnc1SCC1=C(C(=O)O)N2C(=O)C(NC(=O)C(OC=O)c3ccccc3)C2SC1

>  <standardized_failed>  (169) 
False

$$$$

     RDKit          2D

 10  9  0  0  0  0  0  0  0  0999 V2000
    3.6292   -2.1417    0.0000 C   0  0  0  0  0  0  0  0  0  0  0  0
    4.3417   -2.5542    0.0000 C   0  0  0  0  0  0  0  0  0  0  0  0
    2.9167   -2.5542    0.0000 C   0  0  0  0  0  0  0  0  0  0  0  0
    5.0542   -2.1417    0.0000 C   0  0  0  0  0  0  0  0  0  0  0  0
    2.9167   -3.3792    0.0000 O   0  0  0  0  0  0  0  0  0  0  0  0
    5.0542   -1.3167    0.0000 O   0  0  0  0  0  0  0  0  0  0  0  0
    2.2042   -2.1417    0.0000 O   0  0  0  0  0  0  0  0  0  0  0  0
    5.7667   -2.5542    0.0000 O   0  0  0  0  0  0  0  0  0  0  0  0
    1.4917   -2.5542    0.0000 C   0  0  0  0  0  0  0  0  0  0  0  0
    5.7667   -3.3792    0.0000 C   0  0  0  0  0  0  0  0  0  0  0  0
  2  1  2  0
  3  1  1  0
  4  2  1  0
  5  3  2  0
  6  4  2  0
  7  3  1  0
  8  4  1  0
  9  7  1  0
 10  8  1  0
M  END
>  <ID>  (170) 


>  <MOLENAME>  (170) 
DIMETHYL FUMARATE

>  <therap>  (170) 
immunomodulator

>  <ref>  (170) 
Clin. Immunol. (2012), 142(1), 44-48; Expert Opin. Invest. Drugs (2010), 19(12), 1603-1612; Arch. Med. Res. (2008), 39(7), 639-646

>  <cas#>  (170) 
624-49-7

>  <source>  (170) 
synthetic; AZL-O-211089

>  <status>  (170) 
USAN

>  <tradename>  (170) 
nan

>  <SMILES>  (170) 
COC(=O)/C=C/C(=O)OC

>  <standardized_failed>  (170) 
False

$$$$

     RDKit          2D

 10 10  0  0  0  0  0  0  0  0999 V2000
    2.8250    0.1000    0.0000 N   0  0  0  0  0  0  0  0  0  0  0  0
    2.1542    0.5833    0.0000 C   0  0  0  0  0  0  0  0  0  0  0  0
    3.6125    0.3583    0.0000 C   0  0  0  0  0  0  0  0  0  0  0  0
    4.2167   -0.2000    0.0000 C   0  0  0  0  0  0  0  0  0  0  0  0
    2.1542    1.4083    0.0000 O   0  0  0  0  0  0  0  0  0  0  0  0
    4.0500   -1.0042    0.0000 O   0  0  0  0  0  0  0  0  0  0  0  0
    5.0042    0.0583    0.0000 N   0  0  0  0  0  0  0  0  0  0  0  0
    2.5667   -0.6875    0.0000 C   0  0  0  0  0  0  0  0  0  0  0  0
    1.4917    0.1000    0.0000 C   0  0  0  0  0  0  0  0  0  0  0  0
    1.7417   -0.6875    0.0000 C   0  0  0  0  0  0  0  0  0  0  0  0
  2  1  1  0
  3  1  1  0
  4  3  1  0
  5  2  2  0
  6  4  2  0
  7  4  1  0
  8  1  1  0
  9  2  1  0
 10  8  1  0
 10  9  1  0
M  END
>  <ID>  (171) 


>  <MOLENAME>  (171) 
PIRACETAM

>  <therap>  (171) 
antinauseant

>  <ref>  (171) 
Arch Int Pharmacodyn Ther 166:238 (1967); 188:401 (1970); Arzneim Forsch 30:1947 (1980)

>  <cas#>  (171) 
7491-74-9

>  <source>  (171) 
synthetic; CL-871; UCB-6215

>  <status>  (171) 
USAN, INN, BAN

>  <tradename>  (171) 
NORZETAM

>  <SMILES>  (171) 
NC(=O)CN1CCCC1=O

>  <standardized_failed>  (171) 
False

$$$$

     RDKit          2D

 12 12  0  0  0  0  0  0  0  0999 V2000
    2.9417   -3.7125    0.0000 C   0  0  0  0  0  0  0  0  0  0  0  0
    2.2292   -3.2917    0.0000 C   0  0  0  0  0  0  0  0  0  0  0  0
    1.5167   -3.7125    0.0000 C   0  0  0  0  0  0  0  0  0  0  0  0
    2.9417   -4.5375    0.0000 O   0  0  0  0  0  0  0  0  0  0  0  0
    1.5167   -4.5375    0.0000 C   0  0  0  0  0  0  0  0  0  0  0  0
    2.2292   -4.9417    0.0000 C   0  0  0  0  0  0  0  0  0  0  0  0
    3.6542   -3.3000    0.0000 O   0  0  0  0  0  0  0  0  0  0  0  0
    2.2250   -2.4667    0.0000 O   0  0  0  0  0  0  0  0  0  0  0  0
    0.7167   -3.4917    0.0000 O   0  0  0  0  0  0  0  0  0  0  0  0
    0.8042   -4.9417    0.0000 O   0  0  0  0  0  0  0  0  0  0  0  0
    2.2250   -5.7667    0.0000 C   0  0  0  0  0  0  0  0  0  0  0  0
    1.5042   -6.1750    0.0000 O   0  0  0  0  0  0  0  0  0  0  0  0
  2  1  1  0
  3  2  1  0
  4  1  1  0
  5  6  1  0
  6  4  1  0
  7  1  2  0
  2  8  1  6
  3  9  1  1
  5 10  1  6
  6 11  1  1
 12 11  1  0
  3  5  1  0
M  END
>  <ID>  (172) 


>  <MOLENAME>  (172) 
GLUCONOLACTONE

>  <therap>  (172) 
chelating agent

>  <ref>  (172) 
Int. J. Food Microbiol. (1996), 29(2-3), 241-54; Int. J. Food Microbiol. (1994), 24(1-2), 283-93; Int. J. Food Microbiol. (1988), 7(4), 349-52

>  <cas#>  (172) 
90-80-2

>  <source>  (172) 
synthetic

>  <status>  (172) 
USP

>  <tradename>  (172) 
nan

>  <SMILES>  (172) 
O=C1O[C@@H](CO)[C@H](O)[C@@H](O)[C@@H]1O

>  <standardized_failed>  (172) 
False

$$$$

     RDKit          2D

 33 35  0  0  0  0  0  0  0  0999 V2000
    7.9667   -4.6917    0.0000 N   0  0  0  0  0  0  0  0  0  0  0  0
    7.3917   -5.2792    0.0000 C   0  0  0  0  0  0  0  0  0  0  0  0
    7.3917   -4.1042    0.0000 C   0  0  0  0  0  0  0  0  0  0  0  0
    6.8042   -4.6917    0.0000 C   0  0  0  0  0  0  0  0  0  0  0  0
    4.7417   -6.4542    0.0000 N   0  0  0  0  0  0  0  0  0  0  0  0
    8.7042   -5.0667    0.0000 C   0  0  0  0  0  0  0  0  0  0  0  0
    7.7667   -6.0042    0.0000 S   0  0  0  0  0  0  0  0  0  0  0  0
    4.7417   -5.6292    0.0000 C   0  0  0  0  0  0  0  0  0  0  0  0
    8.5792   -5.8792    0.0000 C   0  0  0  0  0  0  0  0  0  0  0  0
    5.9792   -4.6917    0.0000 N   0  0  0  0  0  0  0  0  0  0  0  0
    5.4542   -6.8792    0.0000 C   0  0  0  0  0  0  0  0  0  0  0  0
    5.5667   -3.9792    0.0000 C   0  0  0  0  0  0  0  0  0  0  0  0
    4.7417   -4.8042    0.0000 N   0  0  0  0  0  0  0  0  0  0  0  0
    4.7417   -3.9792    0.0000 C   0  0  0  0  0  0  0  0  0  0  0  0
    9.4042   -4.7417    0.0000 C   0  0  0  0  0  0  0  0  0  0  0  0
    5.4542   -7.7042    0.0000 N   0  0  0  0  0  0  0  0  0  0  0  0
    7.3917   -3.2792    0.0000 O   0  0  0  0  0  0  0  0  0  0  0  0
    3.9167   -5.6292    0.0000 O   0  0  0  0  0  0  0  0  0  0  0  0
    6.1792   -6.4667    0.0000 O   0  0  0  0  0  0  0  0  0  0  0  0
    5.9792   -3.2667    0.0000 O   0  0  0  0  0  0  0  0  0  0  0  0
   10.0417   -5.2042    0.0000 O   0  0  0  0  0  0  0  0  0  0  0  0
    9.4917   -3.9792    0.0000 O   0  0  0  0  0  0  0  0  0  0  0  0
    3.9167   -3.9792    0.0000 C   0  0  0  0  0  0  0  0  0  0  0  0
    4.0417   -6.8667    0.0000 C   0  0  0  0  0  0  0  0  0  0  0  0
    4.0292   -7.6917    0.0000 C   0  0  0  0  0  0  0  0  0  0  0  0
    9.2917   -6.2917    0.0000 C   0  0  0  0  0  0  0  0  0  0  0  0
    8.5667   -6.7042    0.0000 C   0  0  0  0  0  0  0  0  0  0  0  0
   11.4417   -4.9292    0.0000 Na  0  0  0  0  0 15  0  0  0  0  0  0
    3.5042   -4.6917    0.0000 C   0  0  0  0  0  0  0  0  0  0  0  0
    3.5042   -3.2667    0.0000 C   0  0  0  0  0  0  0  0  0  0  0  0
    2.6792   -4.6917    0.0000 C   0  0  0  0  0  0  0  0  0  0  0  0
    2.6792   -3.2542    0.0000 C   0  0  0  0  0  0  0  0  0  0  0  0
    2.2667   -3.9667    0.0000 C   0  0  0  0  0  0  0  0  0  0  0  0
  2  1  1  0
  3  1  1  0
  4  3  1  0
  5  8  1  0
  6  1  1  0
  2  7  1  6
  8 13  1  0
  9  6  1  0
  4 10  1  6
 11  5  1  0
 12 10  1  0
 14 13  1  1
 14 12  1  0
 15  6  1  0
 16 11  1  0
 17  3  2  0
 18  8  2  0
 19 11  2  0
 20 12  2  0
 21 15  1  0
 22 15  2  0
 14 23  1  0
 24  5  1  0
 25 24  1  0
 26  9  1  0
 27  9  1  0
 29 23  2  0
 30 23  1  0
 31 29  1  0
 32 30  2  0
 33 31  2  0
  9  7  1  0
  2  4  1  0
 32 33  1  0
 16 25  1  0
M  CHG  2  21  -1  28   1
M  END
>  <ID>  (173) 


>  <MOLENAME>  (173) 
AZLOCILLIN SODIUM

>  <therap>  (173) 
antibacterial

>  <ref>  (173) 
Infection 5:163 (1977); Arzneim Forsch 29:1915 (1979); J Antimicrob Chemother 11 Suppl B: 1 (1983)

>  <cas#>  (173) 
37091-66-0

>  <source>  (173) 
semisynthetic

>  <status>  (173) 
USAN, INN, BAN

>  <tradename>  (173) 
AZLIN

>  <SMILES>  (173) 
CC1(C)S[C@@H]2[C@H](NC(=O)[C@H](NC(=O)N3CCNC3=O)c3ccccc3)C(=O)N2C1C(=O)O

>  <standardized_failed>  (173) 
False

$$$$

     RDKit          2D

  8  6  0  0  0  0  0  0  0  0999 V2000
    4.1417   -2.7292    0.0000 N   0  0  0  0  0  0  0  0  0  0  0  0
    5.9167   -2.7417    0.0000 Cl  0  0  0  0  0  0  0  0  0  0  0  0
    2.0042   -3.1417    0.0000 O   0  0  0  0  0  0  0  0  0  0  0  0
    3.4292   -3.1417    0.0000 C   0  0  0  0  0  0  0  0  0  0  0  0
    4.1417   -1.9042    0.0000 C   0  0  0  0  0  0  0  0  0  0  0  0
    4.8542   -2.3125    0.0000 C   0  0  0  0  0  0  0  0  0  0  0  0
    4.8542   -3.1375    0.0000 C   0  0  0  0  0  0  0  0  0  0  0  0
    2.7167   -2.7292    0.0000 C   0  0  0  0  0  0  0  0  0  0  0  0
  3  8  1  0
  4  1  1  0
  5  1  1  0
  6  1  1  0
  7  1  1  0
  8  4  1  0
M  CHG  2   1   1   2  -1
M  END
>  <ID>  (174) 


>  <MOLENAME>  (174) 
CHOLINE CHLORIDE

>  <therap>  (174) 
choleretic, lipotropic, hepatoprotectant

>  <ref>  (174) 
Toxicol Appl Pharmacol 12:486 (1968); Life Sci 22:1555 (1978); Science 201:274 (1978)

>  <cas#>  (174) 
67-48-1, 62-49-7 [choline]

>  <source>  (174) 
widespread in the plant and animal kingdoms

>  <status>  (174) 
USP, INN

>  <tradename>  (174) 
LIPOTRIL

>  <SMILES>  (174) 
C[N+](C)(C)CCO.[Cl-]

>  <standardized_failed>  (174) 
False

$$$$

     RDKit          2D

 41 43  0  0  0  0  0  0  0  0999 V2000
    0.7292    0.5250    0.0000 C   0  0  0  0  0  0  0  0  0  0  0  0
    2.0625    0.5250    0.0000 N   0  0  0  0  0  0  0  0  0  0  0  0
    1.3917    1.0083    0.0000 C   0  0  0  0  0  0  0  0  0  0  0  0
    1.8042   -0.2625    0.0000 C   0  0  0  0  0  0  0  0  0  0  0  0
    0.9792   -0.2625    0.0000 C   0  0  0  0  0  0  0  0  0  0  0  0
   -0.0500    0.7750    0.0000 C   0  0  0  0  0  0  0  0  0  0  0  0
    2.7750    0.9375    0.0000 C   0  0  0  0  0  0  0  0  0  0  0  0
    2.2875   -0.9250    0.0000 C   0  0  0  0  0  0  0  0  0  0  0  0
    7.0500    0.9375    0.0000 C   0  0  0  0  0  0  0  0  0  0  0  0
    6.3375    0.5250    0.0000 C   0  0  0  0  0  0  0  0  0  0  0  0
    0.5000   -0.9292    0.0000 C   0  0  0  0  0  0  0  0  0  0  0  0
   -0.2250    1.5833    0.0000 O   0  0  0  0  0  0  0  0  0  0  0  0
    1.3917    1.8333    0.0000 C   0  0  0  0  0  0  0  0  0  0  0  0
   -0.6708    0.2250    0.0000 C   0  0  0  0  0  0  0  0  0  0  0  0
    7.7625    0.5250    0.0000 O   0  0  0  0  0  0  0  0  0  0  0  0
    3.4875    0.5250    0.0000 C   0  0  0  0  0  0  0  0  0  0  0  0
    7.0500    1.7625    0.0000 O   0  0  0  0  0  0  0  0  0  0  0  0
    5.6250    0.9375    0.0000 C   0  0  0  0  0  0  0  0  0  0  0  0
    4.9125    0.5250    0.0000 C   0  0  0  0  0  0  0  0  0  0  0  0
    3.1042   -0.8417    0.0000 C   0  0  0  0  0  0  0  0  0  0  0  0
    1.9500   -1.6792    0.0000 C   0  0  0  0  0  0  0  0  0  0  0  0
    3.2542   -2.2625    0.0000 C   0  0  0  0  0  0  0  0  0  0  0  0
    4.2000    0.9375    0.0000 C   0  0  0  0  0  0  0  0  0  0  0  0
    3.5917   -1.5042    0.0000 C   0  0  0  0  0  0  0  0  0  0  0  0
    2.4375   -2.3500    0.0000 C   0  0  0  0  0  0  0  0  0  0  0  0
    3.7417   -2.9292    0.0000 F   0  0  0  0  0  0  0  0  0  0  0  0
    6.6667   -0.8750    0.0000 Ca  0  0  0  0  0 15  0  0  0  0  0  0
    5.6250    1.7625    0.0000 O   0  0  0  0  0  0  0  0  0  0  0  0
    4.2000    1.7625    0.0000 O   0  0  0  0  0  0  0  0  0  0  0  0
   -0.3250   -0.8375    0.0000 C   0  0  0  0  0  0  0  0  0  0  0  0
    0.8292   -1.6750    0.0000 C   0  0  0  0  0  0  0  0  0  0  0  0
   -0.5000   -0.5750    0.0000 C   0  0  0  0  0  0  0  0  0  0  0  0
   -1.4500    0.4833    0.0000 C   0  0  0  0  0  0  0  0  0  0  0  0
    0.6792    2.2458    0.0000 C   0  0  0  0  0  0  0  0  0  0  0  0
    2.1125    2.2500    0.0000 C   0  0  0  0  0  0  0  0  0  0  0  0
    0.3500   -2.3417    0.0000 C   0  0  0  0  0  0  0  0  0  0  0  0
   -1.1000   -1.1292    0.0000 C   0  0  0  0  0  0  0  0  0  0  0  0
   -2.0625   -0.0667    0.0000 C   0  0  0  0  0  0  0  0  0  0  0  0
   -0.8125   -1.5000    0.0000 C   0  0  0  0  0  0  0  0  0  0  0  0
   -1.8875   -0.8750    0.0000 C   0  0  0  0  0  0  0  0  0  0  0  0
   -0.4750   -2.2625    0.0000 C   0  0  0  0  0  0  0  0  0  0  0  0
  2  3  1  0
  3  1  2  0
  4  5  2  0
  5  1  1  0
  6  1  1  0
  7  2  1  0
  8  4  1  0
  9 10  1  0
 10 18  1  0
 11  5  1  0
 12  6  2  0
 13  3  1  0
 14  6  1  0
 15  9  1  0
 16  7  1  0
 17  9  2  0
 18 19  1  0
 19 23  1  0
 20  8  2  0
 21  8  1  0
 22 25  1  0
 23 16  1  0
 24 20  1  0
 25 21  2  0
 26 22  1  0
 18 28  1  1
 23 29  1  1
 30 11  2  0
 31 11  1  0
 32 14  2  0
 33 14  1  0
 34 13  1  0
 35 13  1  0
 36 31  2  0
 37 32  1  0
 38 33  2  0
 39 30  1  0
 40 37  2  0
 41 39  2  0
  4  2  1  0
 38 40  1  0
 36 41  1  0
 22 24  2  0
M  CHG  2  15  -1  27   2
M  END
>  <ID>  (175) 


>  <MOLENAME>  (175) 
ATORVASTATIN CALCIUM

>  <therap>  (175) 
antihyperlipidemic, HMGCoA reductase inhibitor

>  <ref>  (175) 
Ann Pharmacother 32:1030 (1998); Drugs 65:137 (2005)

>  <cas#>  (175) 
134523-03-8, 134523-00-5 [atorvastatin]

>  <source>  (175) 
synthetic

>  <status>  (175) 
USAN, INN, BAN

>  <tradename>  (175) 
LIPITOR

>  <SMILES>  (175) 
CC(C)c1c(C(=O)c2ccccc2)c(-c2ccccc2)c(-c2ccc(F)cc2)n1CC[C@@H](O)C[C@@H](O)CC(=O)O

>  <standardized_failed>  (175) 
False

$$$$

     RDKit          2D

 26 27  0  0  0  0  0  0  0  0999 V2000
    7.9542   -5.7792    0.0000 C   0  0  0  0  0  0  0  0  0  0  0  0
    5.1000   -5.7792    0.0000 C   0  0  0  0  0  0  0  0  0  0  0  0
    7.9542   -4.9542    0.0000 N   0  0  0  0  0  0  0  0  0  0  0  0
    5.8167   -6.1917    0.0000 C   0  0  0  0  0  0  0  0  0  0  0  0
    8.6667   -6.1917    0.0000 N   0  0  0  0  0  0  0  0  0  0  0  0
    6.5292   -5.7792    0.0000 O   0  0  0  0  0  0  0  0  0  0  0  0
    7.2417   -6.1917    0.0000 C   0  0  0  0  0  0  0  0  0  0  0  0
    5.8167   -7.0167    0.0000 O   0  0  0  0  0  0  0  0  0  0  0  0
    5.1000   -4.9542    0.0000 C   0  0  0  0  0  0  0  0  0  0  0  0
    4.3875   -6.1917    0.0000 C   0  0  0  0  0  0  0  0  0  0  0  0
    4.3792   -5.3667    0.0000 O   0  0  0  0  0  0  0  0  0  0  0  0
    8.6667   -4.5417    0.0000 C   0  0  0  0  0  0  0  0  0  0  0  0
    8.0750   -3.6125    0.0000 Cl  0  0  0  0  0  0  0  0  0  0  0  0
    9.3792   -5.7792    0.0000 C   0  0  0  0  0  0  0  0  0  0  0  0
    7.2375   -4.5417    0.0000 C   0  0  0  0  0  0  0  0  0  0  0  0
    9.3792   -4.9542    0.0000 C   0  0  0  0  0  0  0  0  0  0  0  0
    5.8125   -4.5417    0.0000 C   0  0  0  0  0  0  0  0  0  0  0  0
    4.3792   -4.5500    0.0000 C   0  0  0  0  0  0  0  0  0  0  0  0
    3.6750   -5.7792    0.0000 C   0  0  0  0  0  0  0  0  0  0  0  0
    4.3917   -7.0167    0.0000 C   0  0  0  0  0  0  0  0  0  0  0  0
    4.3792   -3.7250    0.0000 C   0  0  0  0  0  0  0  0  0  0  0  0
    5.8125   -3.7167    0.0000 C   0  0  0  0  0  0  0  0  0  0  0  0
    3.6792   -7.4292    0.0000 C   0  0  0  0  0  0  0  0  0  0  0  0
    2.9625   -6.1917    0.0000 C   0  0  0  0  0  0  0  0  0  0  0  0
    5.0917   -3.3042    0.0000 C   0  0  0  0  0  0  0  0  0  0  0  0
    2.9625   -7.0167    0.0000 C   0  0  0  0  0  0  0  0  0  0  0  0
  2  4  1  0
  3  1  1  0
  4  6  1  0
  5  1  2  0
  6  7  1  0
  7  1  1  0
  8  4  2  0
  9  2  1  0
 10  2  1  0
 11  2  1  0
 12  3  1  0
 14  5  1  0
 15  3  1  0
 16 14  1  0
 17  9  2  0
 18  9  1  0
 19 10  1  0
 20 10  1  0
 21 18  2  0
 22 17  1  0
 23 20  1  0
 24 19  1  0
 25 22  2  0
 26 24  1  0
 12 16  1  0
 23 26  1  0
 21 25  1  0
M  END
>  <ID>  (176) 


>  <MOLENAME>  (176) 
OXYPHENCYCLIMINE HYDROCHLORIDE

>  <therap>  (176) 
anticholinergic

>  <ref>  (176) 
J Pharmacol Exp Ther 125:330 (1959); Digestive Dis Sci 12:1122 (1986)

>  <cas#>  (176) 
125-52-0, 125-53-1 [oxyphencyclimine]

>  <source>  (176) 
synthetic

>  <status>  (176) 
USP-XXII, INN, BAN, JAN

>  <tradename>  (176) 
DARICON

>  <SMILES>  (176) 
CN1CCCN=C1COC(=O)C(O)(c1ccccc1)C1CCCCC1

>  <standardized_failed>  (176) 
False

$$$$

     RDKit          2D

 26 26  0  0  0  0  0  0  0  0999 V2000
    3.9500   -2.5750    0.0000 C   0  0  0  0  0  0  0  0  0  0  0  0
    4.6667   -2.9875    0.0000 C   0  0  0  0  0  0  0  0  0  0  0  0
    3.9500   -1.7417    0.0000 C   0  0  0  0  0  0  0  0  0  0  0  0
    4.6625   -1.3292    0.0000 O   0  0  0  0  0  0  0  0  0  0  0  0
    5.3792   -2.5667    0.0000 O   0  0  0  0  0  0  0  0  0  0  0  0
    4.6667   -3.8125    0.0000 C   0  0  0  0  0  0  0  0  0  0  0  0
    5.3792   -1.7375    0.0000 C   0  0  0  0  0  0  0  0  0  0  0  0
    6.0917   -1.3250    0.0000 C   0  0  0  0  0  0  0  0  0  0  0  0
    5.3792   -4.2167    0.0000 C   0  0  0  0  0  0  0  0  0  0  0  0
    7.5167   -1.3167    0.0000 N   0  0  0  0  0  0  0  0  0  0  0  0
    7.1375   -3.8042    0.0000 Cl  0  0  0  0  0  0  0  0  0  0  0  0
    5.3792   -5.0417    0.0000 C   0  0  0  0  0  0  0  0  0  0  0  0
    6.1042   -0.6250    0.0000 O   0  0  0  0  0  0  0  0  0  0  0  0
    3.2292   -2.9875    0.0000 C   0  0  0  0  0  0  0  0  0  0  0  0
    6.8042   -1.7292    0.0000 C   0  0  0  0  0  0  0  0  0  0  0  0
    3.2292   -1.3292    0.0000 C   0  0  0  0  0  0  0  0  0  0  0  0
    8.2375   -1.7292    0.0000 C   0  0  0  0  0  0  0  0  0  0  0  0
    4.6667   -5.4542    0.0000 C   0  0  0  0  0  0  0  0  0  0  0  0
    6.1000   -5.4542    0.0000 C   0  0  0  0  0  0  0  0  0  0  0  0
    8.9500   -1.3125    0.0000 C   0  0  0  0  0  0  0  0  0  0  0  0
    2.5167   -2.5750    0.0000 C   0  0  0  0  0  0  0  0  0  0  0  0
    9.6625   -1.7167    0.0000 C   0  0  0  0  0  0  0  0  0  0  0  0
    2.5167   -1.7500    0.0000 C   0  0  0  0  0  0  0  0  0  0  0  0
    6.1042   -6.2750    0.0000 C   0  0  0  0  0  0  0  0  0  0  0  0
    4.6750   -6.2792    0.0000 C   0  0  0  0  0  0  0  0  0  0  0  0
    5.3875   -6.6917    0.0000 C   0  0  0  0  0  0  0  0  0  0  0  0
  2  1  1  0
  3  1  2  0
  4  3  1  0
  5  2  2  0
  6  2  1  0
  7  4  1  0
  8  7  1  0
  9  6  1  0
 10 15  1  0
 12  9  1  0
 13  8  1  0
 14  1  1  0
 15  8  1  0
 16  3  1  0
 17 10  1  0
 18 12  2  0
 19 12  1  0
 20 17  1  0
 21 14  2  0
 22 20  1  0
 23 21  1  0
 24 19  2  0
 25 18  1  0
 26 25  2  0
 23 16  2  0
 24 26  1  0
M  END
>  <ID>  (177) 


>  <MOLENAME>  (177) 
PROPAFENONE HYDROCHLORIDE

>  <therap>  (177) 
antiarrhythmic

>  <ref>  (177) 
Drugs 45:85 (1993); Am J Cardiol 82:59N, 66N (1998); 

>  <cas#>  (177) 
34183-22-7, 54063-53-5 [propafenone]

>  <source>  (177) 
synthetic

>  <status>  (177) 
USP, INN, BAN, JAN

>  <tradename>  (177) 
RYTHYMOL

>  <SMILES>  (177) 
CCCNCC(O)COc1c(C(=O)CCc2ccccc2)cccc1

>  <standardized_failed>  (177) 
False

$$$$

     RDKit          2D

 22 24  0  0  0  0  0  0  0  0999 V2000
    3.6792   -1.1167    0.0000 C   0  0  0  0  0  0  0  0  0  0  0  0
    2.8542   -1.1167    0.0000 C   0  0  0  0  0  0  0  0  0  0  0  0
    5.6792    0.4083    0.0000 N   0  0  0  0  0  0  0  0  0  0  0  0
    5.6917   -2.6417    0.0000 N   0  0  0  0  0  0  0  0  0  0  0  0
    4.3792    0.1208    0.0000 N   0  0  0  0  0  0  0  0  0  0  0  0
    4.3792   -2.3625    0.0000 N   0  0  0  0  0  0  0  0  0  0  0  0
    4.4667   -3.1750    0.0000 N   0  0  0  0  0  0  0  0  0  0  0  0
    4.4625    0.9458    0.0000 N   0  0  0  0  0  0  0  0  0  0  0  0
    3.6750   -1.9417    0.0000 C   0  0  0  0  0  0  0  0  0  0  0  0
    3.6750   -0.2917    0.0000 C   0  0  0  0  0  0  0  0  0  0  0  0
    2.4417   -0.4042    0.0000 C   0  0  0  0  0  0  0  0  0  0  0  0
    5.2750   -3.3542    0.0000 C   0  0  0  0  0  0  0  0  0  0  0  0
    5.2667    1.1208    0.0000 C   0  0  0  0  0  0  0  0  0  0  0  0
    5.1292   -0.2125    0.0000 C   0  0  0  0  0  0  0  0  0  0  0  0
    5.1417   -2.0250    0.0000 C   0  0  0  0  0  0  0  0  0  0  0  0
    1.6167   -0.4125    0.0000 C   0  0  0  0  0  0  0  0  0  0  0  0
    2.4417   -1.8292    0.0000 C   0  0  0  0  0  0  0  0  0  0  0  0
    4.5042   -1.1167    0.0000 O   0  0  0  0  0  0  0  0  0  0  0  0
    1.2042   -1.1250    0.0000 C   0  0  0  0  0  0  0  0  0  0  0  0
    2.8542    0.3083    0.0000 F   0  0  0  0  0  0  0  0  0  0  0  0
    1.6167   -1.8292    0.0000 C   0  0  0  0  0  0  0  0  0  0  0  0
    0.3792   -1.1250    0.0000 F   0  0  0  0  0  0  0  0  0  0  0  0
  2  1  1  0
  3 14  2  0
  4 15  2  0
  5 10  1  0
  6  9  1  0
  7  6  1  0
  8  5  1  0
  9  1  1  0
 10  1  1  0
 11  2  2  0
 12  7  2  0
 13  8  2  0
 14  5  1  0
 15  6  1  0
 16 11  1  0
 17  2  1  0
 18  1  1  0
 19 21  1  0
 20 11  1  0
 21 17  2  0
 22 19  1  0
  3 13  1  0
 12  4  1  0
 16 19  2  0
M  END
>  <ID>  (178) 


>  <MOLENAME>  (178) 
FLUCONAZOLE

>  <therap>  (178) 
antifungal

>  <ref>  (178) 
J Drug Dev 5:235 (1993); Antimicrob Agents Chemother 39:1 (1995); 40:1935 (1996)

>  <cas#>  (178) 
86386-73-4

>  <source>  (178) 
synthetic

>  <status>  (178) 
USAN, INN, BAN, JAN

>  <tradename>  (178) 
DIFLUCAN

>  <SMILES>  (178) 
OC(Cn1cncn1)(Cn1cncn1)c1c(F)cc(F)cc1

>  <standardized_failed>  (178) 
False

$$$$

     RDKit          2D

 29 31  0  0  0  0  0  0  0  0999 V2000
    3.6542   -3.6000    0.0000 C   0  0  0  0  0  0  0  0  0  0  0  0
    3.6625   -2.7750    0.0000 C   0  0  0  0  0  0  0  0  0  0  0  0
    2.9500   -2.3542    0.0000 C   0  0  0  0  0  0  0  0  0  0  0  0
    5.8292    0.9208    0.0000 C   0  0  0  0  0  0  0  0  0  0  0  0
    2.2250   -1.1250    0.0000 C   0  0  0  0  0  0  0  0  0  0  0  0
    4.3667   -4.0042    0.0000 C   0  0  0  0  0  0  0  0  0  0  0  0
    2.9500   -4.0042    0.0000 C   0  0  0  0  0  0  0  0  0  0  0  0
    2.9417   -1.5292    0.0000 O   0  0  0  0  0  0  0  0  0  0  0  0
    4.3750   -2.3625    0.0000 C   0  0  0  0  0  0  0  0  0  0  0  0
    5.8167    0.0958    0.0000 O   0  0  0  0  0  0  0  0  0  0  0  0
    5.0875   -3.6042    0.0000 C   0  0  0  0  0  0  0  0  0  0  0  0
    5.1167    1.3458    0.0000 C   0  0  0  0  0  0  0  0  0  0  0  0
    4.3792   -1.5375    0.0000 C   0  0  0  0  0  0  0  0  0  0  0  0
    2.2417   -2.7750    0.0000 C   0  0  0  0  0  0  0  0  0  0  0  0
    5.0875   -2.7792    0.0000 C   0  0  0  0  0  0  0  0  0  0  0  0
    5.1042   -0.3042    0.0000 C   0  0  0  0  0  0  0  0  0  0  0  0
    2.2167   -0.3000    0.0000 O   0  0  0  0  0  0  0  0  0  0  0  0
    4.3917    0.9375    0.0000 C   0  0  0  0  0  0  0  0  0  0  0  0
    6.5500    1.3250    0.0000 O   0  0  0  0  0  0  0  0  0  0  0  0
    2.2417   -3.6000    0.0000 C   0  0  0  0  0  0  0  0  0  0  0  0
    4.3917    0.1125    0.0000 C   0  0  0  0  0  0  0  0  0  0  0  0
    1.5167   -1.5417    0.0000 C   0  0  0  0  0  0  0  0  0  0  0  0
    5.1000   -1.1250    0.0000 C   0  0  0  0  0  0  0  0  0  0  0  0
    3.6792    1.3500    0.0000 O   0  0  0  0  0  0  0  0  0  0  0  0
    5.8000   -2.3625    0.0000 C   0  0  0  0  0  0  0  0  0  0  0  0
    1.5250   -4.0042    0.0000 C   0  0  0  0  0  0  0  0  0  0  0  0
    0.7917   -1.1375    0.0000 C   0  0  0  0  0  0  0  0  0  0  0  0
    1.5125   -2.3667    0.0000 C   0  0  0  0  0  0  0  0  0  0  0  0
    0.0875   -1.5542    0.0000 C   0  0  0  0  0  0  0  0  0  0  0  0
  2  1  1  6
  3  2  1  0
  4 10  1  0
  5  8  1  0
  6  1  1  0
  7  1  2  0
  3  8  1  6
  2  9  1  0
 10 16  1  0
 11  6  2  0
 12 18  1  0
  9 13  1  1
 14 20  1  0
 15 11  1  0
 16 23  1  6
 17  5  2  0
 18 21  1  0
 19  4  2  0
 20  7  1  0
 21 16  1  0
 22  5  1  0
 23 13  1  0
 18 24  1  1
 15 25  1  1
 20 26  1  6
 27 22  1  0
 22 28  1  1
 29 27  1  0
  3 14  1  0
  9 15  1  0
  4 12  1  0
M  END
>  <ID>  (179) 


>  <MOLENAME>  (179) 
LOVASTATIN

>  <therap>  (179) 
antihyperlipidemic, HMGCoA reductase inhibitor

>  <ref>  (179) 
PNAS 77:3957 (1980); Int J Oncol 12:717 (1998)

>  <cas#>  (179) 
75330-75-5

>  <source>  (179) 
Aspergillus spp; mevinolin

>  <status>  (179) 
USP, INN, BAN

>  <tradename>  (179) 
MEVACOR

>  <SMILES>  (179) 
CC[C@H](C)C(=O)O[C@H]1C[C@@H](C)C=C2C=C[C@H](C)[C@H](CC[C@@H]3C[C@@H](O)CC(=O)O3)[C@H]21

>  <standardized_failed>  (179) 
False

$$$$

     RDKit          2D

108111  0  0  0  0  0  0  0  0999 V2000
    2.7042    1.0833    0.0000 C   0  0  0  0  0  0  0  0  0  0  0  0
    8.6167   -2.7125    0.0000 C   0  0  0  0  0  0  0  0  0  0  0  0
    1.6625    0.0458    0.0000 N   0  0  0  0  0  0  0  0  0  0  0  0
    0.8375    0.0458    0.0000 C   0  0  0  0  0  0  0  0  0  0  0  0
    8.5917   -7.6417    0.0000 C   0  0  0  0  0  0  0  0  0  0  0  0
    9.3167   -6.4167    0.0000 C   0  0  0  0  0  0  0  0  0  0  0  0
    1.9167    0.8333    0.0000 C   0  0  0  0  0  0  0  0  0  0  0  0
    5.9417   -1.9875    0.0000 N   0  0  0  0  0  0  0  0  0  0  0  0
    6.3542   -2.7042    0.0000 C   0  0  0  0  0  0  0  0  0  0  0  0
   10.0417   -4.3625    0.0000 C   0  0  0  0  0  0  0  0  0  0  0  0
    4.6875   -2.7042    0.0000 N   0  0  0  0  0  0  0  0  0  0  0  0
    8.5917   -6.8167    0.0000 C   0  0  0  0  0  0  0  0  0  0  0  0
    8.6167   -3.5375    0.0000 C   0  0  0  0  0  0  0  0  0  0  0  0
    3.4167   -6.3667    0.0000 S   0  0  0  0  0  0  0  0  0  0  0  0
    1.7292   -7.5542    0.0000 S   0  0  0  0  0  0  0  0  0  0  0  0
    3.3667    0.5958    0.0000 N   0  0  0  0  0  0  0  0  0  0  0  0
    5.1042   -1.9875    0.0000 C   0  0  0  0  0  0  0  0  0  0  0  0
    5.9417   -3.4292    0.0000 C   0  0  0  0  0  0  0  0  0  0  0  0
    7.1875   -2.7125    0.0000 C   0  0  0  0  0  0  0  0  0  0  0  0
    8.6250   -0.2417    0.0000 C   0  0  0  0  0  0  0  0  0  0  0  0
    9.3292   -2.3000    0.0000 C   0  0  0  0  0  0  0  0  0  0  0  0
    7.9000   -2.3000    0.0000 N   0  0  0  0  0  0  0  0  0  0  0  0
    5.1042   -3.4375    0.0000 C   0  0  0  0  0  0  0  0  0  0  0  0
   10.0375   -5.1792    0.0000 C   0  0  0  0  0  0  0  0  0  0  0  0
    7.9125    0.1708    0.0000 N   0  0  0  0  0  0  0  0  0  0  0  0
   10.0167   -6.8292    0.0000 O   0  0  0  0  0  0  0  0  0  0  0  0
    7.2000   -0.2417    0.0000 C   0  0  0  0  0  0  0  0  0  0  0  0
    9.3000   -8.0625    0.0000 C   0  0  0  0  0  0  0  0  0  0  0  0
   10.7500   -3.9500    0.0000 O   0  0  0  0  0  0  0  0  0  0  0  0
    9.3292   -3.9500    0.0000 O   0  0  0  0  0  0  0  0  0  0  0  0
    9.3375    0.1708    0.0000 C   0  0  0  0  0  0  0  0  0  0  0  0
    9.3167   -5.5917    0.0000 O   0  0  0  0  0  0  0  0  0  0  0  0
    8.0292   -4.1167    0.0000 C   0  0  0  0  0  0  0  0  0  0  0  0
    1.2500    1.3125    0.0000 S   0  0  0  0  0  0  0  0  0  0  0  0
   10.0167   -7.6542    0.0000 C   0  0  0  0  0  0  0  0  0  0  0  0
   10.7417   -5.5917    0.0000 C   0  0  0  0  0  0  0  0  0  0  0  0
    0.5792    0.8333    0.0000 C   0  0  0  0  0  0  0  0  0  0  0  0
    9.3292   -1.4750    0.0000 N   0  0  0  0  0  0  0  0  0  0  0  0
    4.0375    1.0833    0.0000 C   0  0  0  0  0  0  0  0  0  0  0  0
    2.9542    1.8708    0.0000 C   0  0  0  0  0  0  0  0  0  0  0  0
    0.3500   -0.6250    0.0000 C   0  0  0  0  0  0  0  0  0  0  0  0
    8.1500   -4.9417    0.0000 N   0  0  0  0  0  0  0  0  0  0  0  0
    6.4875    0.1708    0.0000 C   0  0  0  0  0  0  0  0  0  0  0  0
    3.7792    1.8625    0.0000 S   0  0  0  0  0  0  0  0  0  0  0  0
   11.4625   -5.1917    0.0000 C   0  0  0  0  0  0  0  0  0  0  0  0
    7.8667   -8.0500    0.0000 O   0  0  0  0  0  0  0  0  0  0  0  0
    7.1625   -7.6292    0.0000 C   0  0  0  0  0  0  0  0  0  0  0  0
   11.4625   -4.3667    0.0000 C   0  0  0  0  0  0  0  0  0  0  0  0
    4.0167   -0.7667    0.0000 C   0  0  0  0  0  0  0  0  0  0  0  0
   10.0500   -0.2417    0.0000 C   0  0  0  0  0  0  0  0  0  0  0  0
   -0.9208   -4.7917    0.0000 C   0  0  0  0  0  0  0  0  0  0  0  0
    3.3167   -3.8917    0.0000 C   0  0  0  0  0  0  0  0  0  0  0  0
    4.6917   -1.2667    0.0000 C   0  0  0  0  0  0  0  0  0  0  0  0
    3.3250   -3.0667    0.0000 C   0  0  0  0  0  0  0  0  0  0  0  0
   10.0417   -1.0667    0.0000 C   0  0  0  0  0  0  0  0  0  0  0  0
    3.3000   -1.1792    0.0000 C   0  0  0  0  0  0  0  0  0  0  0  0
    6.8292   -4.7250    0.0000 N   0  0  0  0  0  0  0  0  0  0  0  0
    7.4125   -5.3125    0.0000 C   0  0  0  0  0  0  0  0  0  0  0  0
    4.0417   -1.8292    0.0000 N   0  0  0  0  0  0  0  0  0  0  0  0
    4.1292   -5.9542    0.0000 O   0  0  0  0  0  0  0  0  0  0  0  0
    2.7000   -5.9542    0.0000 O   0  0  0  0  0  0  0  0  0  0  0  0
    2.4417   -7.1417    0.0000 O   0  0  0  0  0  0  0  0  0  0  0  0
    1.0167   -7.1417    0.0000 O   0  0  0  0  0  0  0  0  0  0  0  0
    7.2125   -3.9875    0.0000 C   0  0  0  0  0  0  0  0  0  0  0  0
   -0.1000   -4.8792    0.0000 N   0  0  0  0  0  0  0  0  0  0  0  0
    8.6167   -1.0625    0.0000 O   0  0  0  0  0  0  0  0  0  0  0  0
   10.0417   -2.7167    0.0000 O   0  0  0  0  0  0  0  0  0  0  0  0
    7.5125   -3.2667    0.0000 O   0  0  0  0  0  0  0  0  0  0  0  0
    4.0417   -2.6542    0.0000 C   0  0  0  0  0  0  0  0  0  0  0  0
    4.8167    0.8250    0.0000 C   0  0  0  0  0  0  0  0  0  0  0  0
    7.1667   -6.8042    0.0000 O   0  0  0  0  0  0  0  0  0  0  0  0
   -0.4708   -0.5375    0.0000 O   0  0  0  0  0  0  0  0  0  0  0  0
    6.4792    0.9958    0.0000 O   0  0  0  0  0  0  0  0  0  0  0  0
    2.6000   -4.3000    0.0000 O   0  0  0  0  0  0  0  0  0  0  0  0
    3.4125   -5.5417    0.0000 O   0  0  0  0  0  0  0  0  0  0  0  0
    3.4167   -7.1917    0.0000 O   0  0  0  0  0  0  0  0  0  0  0  0
    1.7292   -6.7292    0.0000 O   0  0  0  0  0  0  0  0  0  0  0  0
    1.7292   -8.3792    0.0000 O   0  0  0  0  0  0  0  0  0  0  0  0
    7.2000   -1.0667    0.0000 C   0  0  0  0  0  0  0  0  0  0  0  0
    2.5875   -0.7542    0.0000 O   0  0  0  0  0  0  0  0  0  0  0  0
    4.6917   -4.1500    0.0000 N   0  0  0  0  0  0  0  0  0  0  0  0
    5.7750   -0.2417    0.0000 N   0  0  0  0  0  0  0  0  0  0  0  0
    7.8792   -6.4042    0.0000 O   0  0  0  0  0  0  0  0  0  0  0  0
   -1.2583   -4.0417    0.0000 N   0  0  0  0  0  0  0  0  0  0  0  0
    0.6792   -1.3792    0.0000 N   0  0  0  0  0  0  0  0  0  0  0  0
    6.4417   -8.0375    0.0000 N   0  0  0  0  0  0  0  0  0  0  0  0
   -1.4083   -5.4625    0.0000 N   0  0  0  0  0  0  0  0  0  0  0  0
    4.0292   -4.3042    0.0000 N   0  0  0  0  0  0  0  0  0  0  0  0
    9.2917   -8.8875    0.0000 O   0  0  0  0  0  0  0  0  0  0  0  0
    2.6125   -2.6500    0.0000 N   0  0  0  0  0  0  0  0  0  0  0  0
    3.2917   -2.0000    0.0000 N   0  0  0  0  0  0  0  0  0  0  0  0
    4.9917    0.0208    0.0000 C   0  0  0  0  0  0  0  0  0  0  0  0
   10.7625    0.1708    0.0000 O   0  0  0  0  0  0  0  0  0  0  0  0
    6.3542   -4.1417    0.0000 C   0  0  0  0  0  0  0  0  0  0  0  0
   10.7292   -8.0750    0.0000 C   0  0  0  0  0  0  0  0  0  0  0  0
    9.3375    0.9958    0.0000 C   0  0  0  0  0  0  0  0  0  0  0  0
    7.9125   -1.4792    0.0000 O   0  0  0  0  0  0  0  0  0  0  0  0
   10.7417   -6.4167    0.0000 C   0  0  0  0  0  0  0  0  0  0  0  0
   12.1750   -5.6042    0.0000 C   0  0  0  0  0  0  0  0  0  0  0  0
   10.7250   -8.9000    0.0000 O   0  0  0  0  0  0  0  0  0  0  0  0
   12.1750   -3.9500    0.0000 C   0  0  0  0  0  0  0  0  0  0  0  0
   10.7625   -1.4792    0.0000 C   0  0  0  0  0  0  0  0  0  0  0  0
   -0.7708   -3.3750    0.0000 C   0  0  0  0  0  0  0  0  0  0  0  0
    0.2000   -2.0417    0.0000 C   0  0  0  0  0  0  0  0  0  0  0  0
    6.4792   -1.4792    0.0000 C   0  0  0  0  0  0  0  0  0  0  0  0
    0.5292   -2.7917    0.0000 C   0  0  0  0  0  0  0  0  0  0  0  0
    0.0500   -3.4625    0.0000 C   0  0  0  0  0  0  0  0  0  0  0  0
   12.8917   -4.3542    0.0000 C   0  0  0  0  0  0  0  0  0  0  0  0
  2 21  1  0
  3  7  2  0
  4  3  1  0
  5 12  1  0
  6 32  1  1
  7  1  1  0
  8  9  2  0
  9 19  1  0
 10 30  1  0
 11 17  2  0
 12  6  1  0
 13  2  1  0
 16  1  1  0
 17  8  1  0
 18  9  1  0
 19 22  1  0
 20 25  1  0
 21 38  1  0
 22  2  1  0
 23 18  2  0
 24 10  1  0
 25 27  1  0
 26  6  1  0
 27 43  1  0
 28 35  1  0
 29 10  1  0
 30 13  1  0
 31 20  1  0
 24 32  1  6
 33 13  1  0
 34  7  1  0
 35 26  1  0
 36 24  1  0
 37 34  1  0
 38 55  1  0
 39 16  2  0
 40  1  2  0
 41  4  1  0
 42 33  1  0
 43 82  1  0
 44 40  1  0
 45 48  1  0
  5 46  1  6
 47 46  1  0
 48 29  1  0
 49 53  1  0
 50 31  1  0
 51 84  1  0
 52 54  1  0
 53 17  1  0
 54 69  1  0
 55 50  1  0
 56 49  1  0
 57 64  1  0
 58 42  2  0
 59 53  1  0
 60 14  2  0
 61 14  2  0
 62 15  2  0
 63 15  2  0
 64 33  2  0
 65 51  2  0
 66 20  2  0
 67 21  2  0
 68 19  2  0
 69 59  1  0
 70 39  1  0
 71 47  2  0
 72 41  2  0
 73 43  2  0
 74 52  2  0
 75 14  1  0
 76 14  1  0
 77 15  1  0
 78 15  1  0
 79 27  1  0
 80 56  2  0
 81 23  1  0
 82 92  1  0
 12 83  1  6
 84103  1  0
 85 41  1  0
 86 47  1  0
 87 51  1  0
 88 52  1  0
 28 89  1  1
 90 54  1  0
 91 56  1  0
 92 70  1  0
 93 50  1  0
 94 18  1  0
 35 95  1  6
 96 31  1  0
 97 79  1  0
 36 98  1  6
 45 99  1  1
100 95  1  0
 48101  1  1
102 55  1  0
103107  1  0
104 85  1  0
105 79  1  0
106104  1  0
107106  1  0
108101  1  0
 39 44  1  0
 37  4  2  0
 57 58  1  0
 23 11  1  0
 36 45  1  0
  5 28  1  0
M  END
>  <ID>  (180) 


>  <MOLENAME>  (180) 
BLEOMYCIN (bleomycin B2 shown)

>  <therap>  (180) 
antineoplastic

>  <ref>  (180) 
Biorg Khim 21: 695 (1995)

>  <cas#>  (180) 
9041-93-4, 11056-06-7 [bleomycin]

>  <source>  (180) 
[Bleocin (TM) 3.5% Cu]; Streptomyces verticillis

>  <status>  (180) 
USP, INN, BAN, JAN

>  <tradename>  (180) 
BLENOXANE

>  <SMILES>  (180) 
CC[C@@H]1OC(OC(c2c[nH]cn2)C(NC(=O)c2nc(C(CC(N)=O)NCC(N)C(N)=O)nc(N)c2C)C(=O)NC(C)C(O)C(C)C(=O)NC(C(=O)NCCc2nc(-c3nc(C(=O)NCCCCNC(=N)N)cs3)cs2)C(C)O)[C@@H](O[C@H]2O[C@H](CO)[C@@H](O)[C@H](OC(N)=O)[C@@H]2O)[C@@H](C)[C@@H]1C

>  <standardized_failed>  (180) 
False

$$$$

     RDKit          2D

 11 10  0  0  0  0  0  0  0  0999 V2000
    6.5333   -0.4042    0.0000 S   0  0  0  0  0  0  0  0  0  0  0  0
    6.5333   -1.2292    0.0000 N   0  0  0  0  0  0  0  0  0  0  0  0
    5.8208   -1.6375    0.0000 C   0  0  0  0  0  0  0  0  0  0  0  0
    5.8208    0.0125    0.0000 O   0  0  0  0  0  0  0  0  0  0  0  0
    5.1125   -1.2292    0.0000 C   0  0  0  0  0  0  0  0  0  0  0  0
    5.1125   -0.4042    0.0000 C   0  0  0  0  0  0  0  0  0  0  0  0
    6.7417    0.3958    0.0000 O   0  0  0  0  0  0  0  0  0  0  0  0
    7.3292   -0.6167    0.0000 O   0  0  0  0  0  0  0  0  0  0  0  0
    5.8208   -2.4625    0.0000 O   0  0  0  0  0  0  0  0  0  0  0  0
    8.7917    0.1083    0.0000 K   0  0  0  0  0 15  0  0  0  0  0  0
    4.3958    0.0083    0.0000 C   0  0  0  0  0  0  0  0  0  0  0  0
  2  1  1  0
  3  2  1  0
  4  1  1  0
  5  6  2  0
  6  4  1  0
  7  1  2  0
  8  1  2  0
  9  3  2  0
 11  6  1  0
  3  5  1  0
M  CHG  2   2  -1  10   1
M  END
>  <ID>  (181) 


>  <MOLENAME>  (181) 
ACESULFAME POTASSIUM

>  <therap>  (181) 
sweetener

>  <ref>  (181) 
Angewandte Chem IntL Ed 12:869 (1973); 37:1802 (1998); Horm Metab Res 19:233 (1987)

>  <cas#>  (181) 
55589-62-3

>  <source>  (181) 
synthetic

>  <status>  (181) 
NF, INN, BAN

>  <tradename>  (181) 
SUNETT

>  <SMILES>  (181) 
CC1=CC(=O)NS(=O)(=O)O1

>  <standardized_failed>  (181) 
False

$$$$

     RDKit          2D

 46 53  0  0  0  0  0  0  0  0999 V2000
    6.6875   -2.2167    0.0000 C   0  0  0  0  0  0  0  0  0  0  0  0
    5.9750   -1.8000    0.0000 C   0  0  0  0  0  0  0  0  0  0  0  0
    5.2667   -2.2167    0.0000 C   0  0  0  0  0  0  0  0  0  0  0  0
    5.2667   -3.0417    0.0000 C   0  0  0  0  0  0  0  0  0  0  0  0
    6.6917   -3.0375    0.0000 C   0  0  0  0  0  0  0  0  0  0  0  0
    5.9750   -3.4500    0.0000 C   0  0  0  0  0  0  0  0  0  0  0  0
    8.1167    0.2583    0.0000 C   0  0  0  0  0  0  0  0  0  0  0  0
    6.6875   -0.5542    0.0000 C   0  0  0  0  0  0  0  0  0  0  0  0
    8.8292    0.6708    0.0000 O   0  0  0  0  0  0  0  0  0  0  0  0
    6.6792    0.2625    0.0000 C   0  0  0  0  0  0  0  0  0  0  0  0
    7.4042    0.6708    0.0000 C   0  0  0  0  0  0  0  0  0  0  0  0
    7.4042   -0.9750    0.0000 O   0  0  0  0  0  0  0  0  0  0  0  0
    5.9750   -0.9750    0.0000 O   0  0  0  0  0  0  0  0  0  0  0  0
    8.1125   -0.5667    0.0000 C   0  0  0  0  0  0  0  0  0  0  0  0
    5.9750   -4.2667    0.0000 C   0  0  0  0  0  0  0  0  0  0  0  0
    9.5500    0.2583    0.0000 C   0  0  0  0  0  0  0  0  0  0  0  0
    7.4750   -3.2875    0.0000 C   0  0  0  0  0  0  0  0  0  0  0  0
    4.5542   -3.4500    0.0000 C   0  0  0  0  0  0  0  0  0  0  0  0
    4.5542   -1.8042    0.0000 C   0  0  0  0  0  0  0  0  0  0  0  0
    5.9750   -5.9167    0.0000 C   0  0  0  0  0  0  0  0  0  0  0  0
    7.9542   -2.6167    0.0000 O   0  0  0  0  0  0  0  0  0  0  0  0
   10.2667    0.6625    0.0000 C   0  0  0  0  0  0  0  0  0  0  0  0
    7.4667   -1.9542    0.0000 C   0  0  0  0  0  0  0  0  0  0  0  0
    9.5417   -0.5750    0.0000 O   0  0  0  0  0  0  0  0  0  0  0  0
    5.2542   -5.5042    0.0000 C   0  0  0  0  0  0  0  0  0  0  0  0
    6.6917   -5.5042    0.0000 C   0  0  0  0  0  0  0  0  0  0  0  0
    3.8375   -2.2167    0.0000 C   0  0  0  0  0  0  0  0  0  0  0  0
    3.8417   -3.0417    0.0000 C   0  0  0  0  0  0  0  0  0  0  0  0
    5.2542   -4.6792    0.0000 C   0  0  0  0  0  0  0  0  0  0  0  0
    6.6875   -4.6792    0.0000 C   0  0  0  0  0  0  0  0  0  0  0  0
   10.3542    1.4833    0.0000 S   0  0  0  0  0  0  0  0  0  0  0  0
    8.8250   -0.9792    0.0000 C   0  0  0  0  0  0  0  0  0  0  0  0
    3.0625   -3.3000    0.0000 O   0  0  0  0  0  0  0  0  0  0  0  0
    3.0542   -1.9667    0.0000 O   0  0  0  0  0  0  0  0  0  0  0  0
    2.5750   -2.6375    0.0000 C   0  0  0  0  0  0  0  0  0  0  0  0
   11.0167    0.3208    0.0000 C   0  0  0  0  0  0  0  0  0  0  0  0
    7.6875   -4.0792    0.0000 O   0  0  0  0  0  0  0  0  0  0  0  0
   11.1625    1.6500    0.0000 C   0  0  0  0  0  0  0  0  0  0  0  0
   11.5667    0.9333    0.0000 C   0  0  0  0  0  0  0  0  0  0  0  0
    5.9667    0.6750    0.0000 O   0  0  0  0  0  0  0  0  0  0  0  0
    7.4000    1.4958    0.0000 O   0  0  0  0  0  0  0  0  0  0  0  0
    5.9667   -6.7417    0.0000 O   0  0  0  0  0  0  0  0  0  0  0  0
    7.4042   -5.9167    0.0000 O   0  0  0  0  0  0  0  0  0  0  0  0
    4.5417   -5.9167    0.0000 O   0  0  0  0  0  0  0  0  0  0  0  0
    3.8292   -5.4917    0.0000 C   0  0  0  0  0  0  0  0  0  0  0  0
    8.1167   -5.5000    0.0000 C   0  0  0  0  0  0  0  0  0  0  0  0
  2  1  1  0
  3  2  1  0
  4  6  1  0
  5  1  1  0
  6  5  1  0
  7 14  1  0
  8 13  1  1
  9  7  1  0
 10  8  1  0
 11 10  1  0
 12  8  1  0
 13  2  1  0
 14 12  1  0
  6 15  1  6
 16 24  1  6
  5 17  1  6
 18  4  2  0
 19  3  2  0
 20 26  2  0
 21 23  1  0
 16 22  1  0
 23  1  1  0
 24 32  1  0
 25 29  2  0
 26 30  1  0
 27 19  1  0
 28 18  1  0
 29 15  1  0
 30 15  2  0
 31 22  1  0
 14 32  1  1
 33 28  1  0
 34 27  1  0
 35 34  1  0
 36 22  2  0
 37 17  2  0
 38 31  1  0
 39 36  1  0
 10 40  1  6
 11 41  1  1
 42 20  1  0
 43 26  1  0
 44 25  1  0
 45 44  1  0
 46 43  1  0
 17 21  1  0
  3  4  1  0
 25 20  1  0
 28 27  2  0
 11  7  1  0
 35 33  1  0
 16  9  1  0
 39 38  2  0
M  END
>  <ID>  (182) 


>  <MOLENAME>  (182) 
TENIPOSIDE

>  <therap>  (182) 
antineoplastic

>  <ref>  (182) 
Cancer Res 35:1756 (1975); 38:2549 (1978); Clin Pharmokinet 12:223 (1987); Anal Profiles Drug Subs 19:575 (1990)

>  <cas#>  (182) 
29767-20-2

>  <source>  (182) 
semisynthetic; VM-26

>  <status>  (182) 
USAN, INN, BAN

>  <tradename>  (182) 
VUMON

>  <SMILES>  (182) 
COc1cc([C@@H]2c3cc4c(cc3C(O[C@@H]3O[C@@H]5CO[C@@H](c6cccs6)OC5[C@H](O)[C@H]3O)C3COC(=O)[C@@H]32)OCO4)cc(OC)c1O

>  <standardized_failed>  (182) 
False

$$$$

     RDKit          2D

122132  0  0  0  0  0  0  0  0999 V2000
    3.4875   -0.5750    0.0000 C   0  0  0  0  0  0  0  0  0  0  0  0
    3.0250   -0.8292    0.0000 C   0  0  0  0  0  0  0  0  0  0  0  0
    3.4875   -0.0542    0.0000 C   0  0  0  0  0  0  0  0  0  0  0  0
    2.5667   -0.5750    0.0000 C   0  0  0  0  0  0  0  0  0  0  0  0
    3.0250    0.2083    0.0000 O   0  0  0  0  0  0  0  0  0  0  0  0
    3.9375   -0.8292    0.0000 O   0  0  0  0  0  0  0  0  0  0  0  0
    3.0292   -1.3542    0.0000 O   0  0  0  0  0  0  0  0  0  0  0  0
    2.5667   -0.0542    0.0000 C   0  0  0  0  0  0  0  0  0  0  0  0
    1.1917    2.2750    0.0000 C   0  0  0  0  0  0  0  0  0  0  0  0
    3.0292   -2.9042    0.0000 C   0  0  0  0  0  0  0  0  0  0  0  0
    5.3042   -1.6042    0.0000 C   0  0  0  0  0  0  0  0  0  0  0  0
    0.3000   -0.8167    0.0000 C   0  0  0  0  0  0  0  0  0  0  0  0
    5.3042    0.9958    0.0000 C   0  0  0  0  0  0  0  0  0  0  0  0
    2.1167   -0.8292    0.0000 O   0  0  0  0  0  0  0  0  0  0  0  0
    3.9375    0.2083    0.0000 O   0  0  0  0  0  0  0  0  0  0  0  0
    4.3917   -0.5750    0.0000 C   0  0  0  0  0  0  0  0  0  0  0  0
    3.4792   -1.6167    0.0000 C   0  0  0  0  0  0  0  0  0  0  0  0
    1.6625   -0.5750    0.0000 C   0  0  0  0  0  0  0  0  0  0  0  0
    3.9417    0.7583    0.0000 C   0  0  0  0  0  0  0  0  0  0  0  0
    1.4875    3.3083    0.0000 C   0  0  0  0  0  0  0  0  0  0  0  0
    6.1542    0.9958    0.0000 C   0  0  0  0  0  0  0  0  0  0  0  0
    2.1792   -2.9250    0.0000 C   0  0  0  0  0  0  0  0  0  0  0  0
   -0.6250   -0.3042    0.0000 C   0  0  0  0  0  0  0  0  0  0  0  0
    5.6875   -2.3917    0.0000 C   0  0  0  0  0  0  0  0  0  0  0  0
    0.7417    2.0208    0.0000 C   0  0  0  0  0  0  0  0  0  0  0  0
    0.2917   -1.3417    0.0000 C   0  0  0  0  0  0  0  0  0  0  0  0
    5.7542   -1.3417    0.0000 C   0  0  0  0  0  0  0  0  0  0  0  0
    5.3167    1.5208    0.0000 C   0  0  0  0  0  0  0  0  0  0  0  0
    3.4792   -3.1667    0.0000 C   0  0  0  0  0  0  0  0  0  0  0  0
    1.2042   -0.8292    0.0000 C   0  0  0  0  0  0  0  0  0  0  0  0
    4.8417   -0.8292    0.0000 C   0  0  0  0  0  0  0  0  0  0  0  0
    3.4792   -2.1375    0.0000 C   0  0  0  0  0  0  0  0  0  0  0  0
    4.4042    1.0083    0.0000 C   0  0  0  0  0  0  0  0  0  0  0  0
    2.0042    3.3083    0.0000 C   0  0  0  0  0  0  0  0  0  0  0  0
    1.7167   -3.1792    0.0000 C   0  0  0  0  0  0  0  0  0  0  0  0
    6.6792    0.9958    0.0000 C   0  0  0  0  0  0  0  0  0  0  0  0
   -1.0833   -0.5667    0.0000 C   0  0  0  0  0  0  0  0  0  0  0  0
    6.2125   -2.3917    0.0000 C   0  0  0  0  0  0  0  0  0  0  0  0
    3.0542    3.3125    0.0000 C   0  0  0  0  0  0  0  0  0  0  0  0
    7.7292    0.9958    0.0000 C   0  0  0  0  0  0  0  0  0  0  0  0
   -1.9958   -1.0750    0.0000 C   0  0  0  0  0  0  0  0  0  0  0  0
    0.8125   -3.6917    0.0000 C   0  0  0  0  0  0  0  0  0  0  0  0
    7.2625   -2.4000    0.0000 C   0  0  0  0  0  0  0  0  0  0  0  0
    1.1917    2.8333    0.0000 O   0  0  0  0  0  0  0  0  0  0  0  0
   -0.1708   -0.5667    0.0000 O   0  0  0  0  0  0  0  0  0  0  0  0
    5.7292    0.7500    0.0000 O   0  0  0  0  0  0  0  0  0  0  0  0
    2.6042   -3.1542    0.0000 O   0  0  0  0  0  0  0  0  0  0  0  0
    5.3125   -2.0917    0.0000 O   0  0  0  0  0  0  0  0  0  0  0  0
    1.6542    1.5083    0.0000 C   0  0  0  0  0  0  0  0  0  0  0  0
    2.1125    1.2500    0.0000 C   0  0  0  0  0  0  0  0  0  0  0  0
    0.7500    1.4875    0.0000 C   0  0  0  0  0  0  0  0  0  0  0  0
    4.8667    1.7833    0.0000 C   0  0  0  0  0  0  0  0  0  0  0  0
    5.7542   -0.8250    0.0000 C   0  0  0  0  0  0  0  0  0  0  0  0
    3.9375   -2.9125    0.0000 C   0  0  0  0  0  0  0  0  0  0  0  0
    0.7542   -1.6042    0.0000 C   0  0  0  0  0  0  0  0  0  0  0  0
    2.7917    3.7708    0.0000 C   0  0  0  0  0  0  0  0  0  0  0  0
    2.7917    2.8625    0.0000 C   0  0  0  0  0  0  0  0  0  0  0  0
    7.4625    0.5458    0.0000 C   0  0  0  0  0  0  0  0  0  0  0  0
   -1.9875   -0.5542    0.0000 C   0  0  0  0  0  0  0  0  0  0  0  0
    7.4667    1.4458    0.0000 C   0  0  0  0  0  0  0  0  0  0  0  0
   -1.5375   -1.3375    0.0000 C   0  0  0  0  0  0  0  0  0  0  0  0
    0.8125   -3.1667    0.0000 C   0  0  0  0  0  0  0  0  0  0  0  0
    7.0000   -2.8500    0.0000 C   0  0  0  0  0  0  0  0  0  0  0  0
    1.2667   -3.9542    0.0000 C   0  0  0  0  0  0  0  0  0  0  0  0
    6.9917   -1.9417    0.0000 C   0  0  0  0  0  0  0  0  0  0  0  0
    4.8417    0.7458    0.0000 C   0  0  0  0  0  0  0  0  0  0  0  0
    4.8417   -1.3500    0.0000 C   0  0  0  0  0  0  0  0  0  0  0  0
    3.0292   -2.3917    0.0000 C   0  0  0  0  0  0  0  0  0  0  0  0
    0.7542   -0.5667    0.0000 C   0  0  0  0  0  0  0  0  0  0  0  0
    1.6500    2.0250    0.0000 C   0  0  0  0  0  0  0  0  0  0  0  0
    2.2667    2.8625    0.0000 C   0  0  0  0  0  0  0  0  0  0  0  0
    2.2667    3.7708    0.0000 C   0  0  0  0  0  0  0  0  0  0  0  0
   -1.0833   -1.0792    0.0000 C   0  0  0  0  0  0  0  0  0  0  0  0
    1.7167   -3.6917    0.0000 C   0  0  0  0  0  0  0  0  0  0  0  0
    5.3000   -0.5667    0.0000 C   0  0  0  0  0  0  0  0  0  0  0  0
    1.2042   -1.3417    0.0000 C   0  0  0  0  0  0  0  0  0  0  0  0
    3.9375   -2.3917    0.0000 C   0  0  0  0  0  0  0  0  0  0  0  0
    1.2667   -2.9167    0.0000 C   0  0  0  0  0  0  0  0  0  0  0  0
   -1.5333   -0.2917    0.0000 C   0  0  0  0  0  0  0  0  0  0  0  0
    4.4042    1.5333    0.0000 C   0  0  0  0  0  0  0  0  0  0  0  0
    6.4750   -2.8500    0.0000 C   0  0  0  0  0  0  0  0  0  0  0  0
    6.9417    1.4458    0.0000 C   0  0  0  0  0  0  0  0  0  0  0  0
    6.9417    0.5458    0.0000 C   0  0  0  0  0  0  0  0  0  0  0  0
    6.4750   -1.9500    0.0000 C   0  0  0  0  0  0  0  0  0  0  0  0
    1.2042    1.2375    0.0000 C   0  0  0  0  0  0  0  0  0  0  0  0
    2.1167    0.7333    0.0000 O   0  0  0  0  0  0  0  0  0  0  0  0
    2.1167    0.2083    0.0000 C   0  0  0  0  0  0  0  0  0  0  0  0
    4.4042   -0.0542    0.0000 O   0  0  0  0  0  0  0  0  0  0  0  0
    1.6542   -0.0542    0.0000 O   0  0  0  0  0  0  0  0  0  0  0  0
    3.9375   -1.3667    0.0000 O   0  0  0  0  0  0  0  0  0  0  0  0
    3.4917    1.0208    0.0000 O   0  0  0  0  0  0  0  0  0  0  0  0
    6.1667    1.4750    0.0000 O   0  0  0  0  0  0  0  0  0  0  0  0
   -0.6375    0.2083    0.0000 O   0  0  0  0  0  0  0  0  0  0  0  0
    2.1667   -2.4042    0.0000 O   0  0  0  0  0  0  0  0  0  0  0  0
    5.4417   -2.8542    0.0000 O   0  0  0  0  0  0  0  0  0  0  0  0
    1.2375    3.7708    0.0000 O   0  0  0  0  0  0  0  0  0  0  0  0
    2.5625    1.5208    0.0000 O   0  0  0  0  0  0  0  0  0  0  0  0
    3.4792   -3.6250    0.0000 O   0  0  0  0  0  0  0  0  0  0  0  0
    6.1542   -1.5750    0.0000 O   0  0  0  0  0  0  0  0  0  0  0  0
    5.7917    1.7333    0.0000 O   0  0  0  0  0  0  0  0  0  0  0  0
   -0.1000   -1.5667    0.0000 O   0  0  0  0  0  0  0  0  0  0  0  0
    0.2625    2.2333    0.0000 O   0  0  0  0  0  0  0  0  0  0  0  0
    0.4125   -3.9167    0.0000 O   0  0  0  0  0  0  0  0  0  0  0  0
    8.1917    0.9958    0.0000 O   0  0  0  0  0  0  0  0  0  0  0  0
   -2.3875   -1.3042    0.0000 O   0  0  0  0  0  0  0  0  0  0  0  0
    7.7167   -2.3917    0.0000 O   0  0  0  0  0  0  0  0  0  0  0  0
    3.5167    3.3083    0.0000 O   0  0  0  0  0  0  0  0  0  0  0  0
    3.0750    4.2042    0.0000 O   0  0  0  0  0  0  0  0  0  0  0  0
    0.3250    1.2458    0.0000 O   0  0  0  0  0  0  0  0  0  0  0  0
    7.7167    0.1333    0.0000 O   0  0  0  0  0  0  0  0  0  0  0  0
   -1.5500   -1.8250    0.0000 O   0  0  0  0  0  0  0  0  0  0  0  0
    4.3917   -3.1917    0.0000 O   0  0  0  0  0  0  0  0  0  0  0  0
    0.3417   -2.9167    0.0000 O   0  0  0  0  0  0  0  0  0  0  0  0
    6.2250   -0.5667    0.0000 O   0  0  0  0  0  0  0  0  0  0  0  0
    4.8875    2.3125    0.0000 O   0  0  0  0  0  0  0  0  0  0  0  0
    1.2542   -4.4417    0.0000 O   0  0  0  0  0  0  0  0  0  0  0  0
    0.7417   -2.0917    0.0000 O   0  0  0  0  0  0  0  0  0  0  0  0
    7.7417    1.9000    0.0000 O   0  0  0  0  0  0  0  0  0  0  0  0
    7.2792   -3.3000    0.0000 O   0  0  0  0  0  0  0  0  0  0  0  0
   -2.4625   -0.3000    0.0000 O   0  0  0  0  0  0  0  0  0  0  0  0
    7.2500   -1.5292    0.0000 O   0  0  0  0  0  0  0  0  0  0  0  0
    3.0417    2.4458    0.0000 O   0  0  0  0  0  0  0  0  0  0  0  0
  2  1  1  0
  3  1  1  0
  4  2  1  0
  5  3  1  0
  1  6  1  6
  2  7  1  1
  8  5  1  0
  9 70  2  0
 10 68  2  0
 11 67  2  0
 12 69  2  0
 13 66  2  0
  4 14  1  6
  3 15  1  6
 16  6  1  0
 17  7  1  0
 18 14  1  0
 19 15  1  0
 20 44  1  0
 21 46  1  0
 22 47  1  0
 23 45  1  0
 24 48  1  0
 25 51  2  0
 26 55  2  0
 27 53  2  0
 28 52  2  0
 29 54  2  0
 30 18  1  0
 31 16  1  0
 32 17  1  0
 33 19  1  0
 34 20  1  0
 35 22  1  0
 36 21  1  0
 37 23  1  0
 38 24  1  0
 39 56  2  0
 40 58  2  0
 41 59  2  0
 42 62  2  0
 43 65  2  0
 44  9  1  0
 45 12  1  0
 46 13  1  0
 47 10  1  0
 48 11  1  0
 49 50  1  0
 50 86  1  0
 51 85  1  0
 52 80  1  0
 53 75  1  0
 54 77  1  0
 55 76  1  0
 56 72  1  0
 57 71  2  0
 58 83  1  0
 59 79  1  0
 60 82  2  0
 61 73  2  0
 62 78  1  0
 63 81  2  0
 64 74  2  0
 65 84  1  0
 66 33  1  0
 67 31  1  0
 68 32  1  0
 69 30  1  0
 70 49  1  0
 71 34  1  0
 72 34  2  0
 73 37  1  0
 74 35  1  0
 75 31  2  0
 76 30  2  0
 77 32  2  0
 78 35  2  0
 79 37  2  0
 80 33  2  0
 81 38  1  0
 82 36  1  0
 83 36  2  0
 84 38  2  0
 85 49  2  0
 86 87  1  0
  8 87  1  1
 88 16  2  0
 89 18  2  0
 90 17  2  0
 91 19  2  0
 92 21  2  0
 93 23  2  0
 94 22  2  0
 95 24  2  0
 96 20  2  0
 97 50  2  0
 98 29  1  0
 99 27  1  0
100 28  1  0
101 26  1  0
102 25  1  0
103 42  1  0
104 40  1  0
105 41  1  0
106 43  1  0
107 39  1  0
108 56  1  0
109 51  1  0
110 58  1  0
111 61  1  0
112 54  1  0
113 62  1  0
114 53  1  0
115 52  1  0
116 64  1  0
117 55  1  0
118 60  1  0
119 63  1  0
120 59  1  0
121 65  1  0
122 57  1  0
  4  8  1  0
 27 11  1  0
 13 28  1  0
 10 29  1  0
 12 26  1  0
 63 43  1  0
  9 25  1  0
 60 40  1  0
 42 64  1  0
 61 41  1  0
 39 57  1  0
M  END
>  <ID>  (183) 


>  <MOLENAME>  (183) 
TANNIC ACID

>  <therap>  (183) 
nonspecific enzyme/receptor blocker

>  <ref>  (183) 
mixed galloyl esters of penta-o-galloylglucose (m-digalloyl shown)

>  <cas#>  (183) 
1401-55-4

>  <source>  (183) 
principal constituent of tree galls, esp Quercus spp;

>  <status>  (183) 
USP, JAN

>  <tradename>  (183) 
nan

>  <SMILES>  (183) 
O=C(OC[C@H]1O[C@H](OC(=O)c2cc(O)c(O)c(OC(=O)c3cc(O)c(O)c(O)c3)c2)[C@H](OC(=O)c2cc(O)c(O)c(OC(=O)c3cc(O)c(O)c(O)c3)c2)[C@@H](OC(=O)c2cc(O)c(O)c(OC(=O)c3cc(O)c(O)c(O)c3)c2)[C@@H]1OC(=O)c1cc(O)c(O)c(OC(=O)c2cc(O)c(O)c(O)c2)c1)c1cc(O)c(O)c(OC(=O)c2cc(O)c(O)c(O)c2)c1

>  <standardized_failed>  (183) 
False

$$$$

     RDKit          2D

 19 21  0  0  0  0  0  0  0  0999 V2000
    3.7042   -3.0167    0.0000 N   0  0  0  0  0  0  0  0  0  0  0  0
    4.1917   -3.6792    0.0000 C   0  0  0  0  0  0  0  0  0  0  0  0
    2.9250   -4.1042    0.0000 C   0  0  0  0  0  0  0  0  0  0  0  0
    3.7042   -4.3542    0.0000 C   0  0  0  0  0  0  0  0  0  0  0  0
    2.9167   -3.2792    0.0000 C   0  0  0  0  0  0  0  0  0  0  0  0
    5.3500   -4.5167    0.0000 C   0  0  0  0  0  0  0  0  0  0  0  0
    5.0125   -3.7667    0.0000 C   0  0  0  0  0  0  0  0  0  0  0  0
    6.5125   -5.3500    0.0000 C   0  0  0  0  0  0  0  0  0  0  0  0
    4.0417   -5.1042    0.0000 C   0  0  0  0  0  0  0  0  0  0  0  0
    6.1667   -4.5917    0.0000 C   0  0  0  0  0  0  0  0  0  0  0  0
    2.2042   -4.5167    0.0000 C   0  0  0  0  0  0  0  0  0  0  0  0
    4.8667   -5.1875    0.0000 C   0  0  0  0  0  0  0  0  0  0  0  0
    6.0292   -6.0167    0.0000 O   0  0  0  0  0  0  0  0  0  0  0  0
    2.2042   -2.8667    0.0000 C   0  0  0  0  0  0  0  0  0  0  0  0
    1.4917   -4.1042    0.0000 C   0  0  0  0  0  0  0  0  0  0  0  0
    7.3292   -5.4292    0.0000 O   0  0  0  0  0  0  0  0  0  0  0  0
    1.4917   -3.2792    0.0000 C   0  0  0  0  0  0  0  0  0  0  0  0
    0.7750   -4.5167    0.0000 Cl  0  0  0  0  0  0  0  0  0  0  0  0
    6.6542   -3.9250    0.0000 C   0  0  0  0  0  0  0  0  0  0  0  0
  2  1  1  0
  3  5  2  0
  4  2  2  0
  5  1  1  0
  6  7  2  0
  7  2  1  0
  8 10  1  0
  9  4  1  0
 10  6  1  0
 11  3  1  0
 12  6  1  0
 13  8  2  0
 14  5  1  0
 15 17  1  0
 16  8  1  0
 17 14  2  0
 18 15  1  0
 19 10  1  0
  4  3  1  0
 11 15  2  0
 12  9  2  0
M  END
>  <ID>  (184) 


>  <MOLENAME>  (184) 
CARPROFEN

>  <therap>  (184) 
antiinflammatory, analgesic

>  <ref>  (184) 
J Clin Pharmacol 20:347 (1980); Pharmacotherapy 7:16 (1987)

>  <cas#>  (184) 
53716-49-7

>  <source>  (184) 
synthetic

>  <status>  (184) 
USAN, INN, BAN

>  <tradename>  (184) 
RIMADYL

>  <SMILES>  (184) 
CC(C(=O)O)c1cc2c(cc1)c1c(ccc(Cl)c1)[nH]2

>  <standardized_failed>  (184) 
False

$$$$

     RDKit          2D

 28 28  0  0  0  0  0  0  0  0999 V2000
    4.0667   -2.6125    0.0000 S   0  0  0  0  0  0  0  0  0  0  0  0
    0.4792   -1.4292    0.0000 C   0  0  0  0  0  0  0  0  0  0  0  0
    1.1875   -1.0167    0.0000 C   0  0  0  0  0  0  0  0  0  0  0  0
    0.4792   -2.2542    0.0000 C   0  0  0  0  0  0  0  0  0  0  0  0
    1.1875   -0.1917    0.0000 N   0  0  0  0  0  0  0  0  0  0  0  0
   -0.2375   -2.6792    0.0000 C   0  0  0  0  0  0  0  0  0  0  0  0
   -0.2375   -1.0167    0.0000 C   0  0  0  0  0  0  0  0  0  0  0  0
    1.2000   -2.6667    0.0000 N   0  0  0  0  0  0  0  0  0  0  0  0
    3.5792   -3.0917    0.0000 O   0  0  0  0  0  0  0  0  0  0  0  0
    4.5500   -2.1250    0.0000 O   0  0  0  0  0  0  0  0  0  0  0  0
    4.5500   -3.0917    0.0000 O   0  0  0  0  0  0  0  0  0  0  0  0
    3.5792   -2.1250    0.0000 O   0  0  0  0  0  0  0  0  0  0  0  0
   -0.9500   -2.2667    0.0000 C   0  0  0  0  0  0  0  0  0  0  0  0
    1.9042   -1.4292    0.0000 C   0  0  0  0  0  0  0  0  0  0  0  0
   -0.9500   -1.4417    0.0000 C   0  0  0  0  0  0  0  0  0  0  0  0
    1.9125   -2.2542    0.0000 C   0  0  0  0  0  0  0  0  0  0  0  0
    4.7500    0.2208    0.0000 N   0  0  0  0  0  0  0  0  0  0  0  0
   -1.6958   -2.7167    0.0000 Cl  0  0  0  0  0  0  0  0  0  0  0  0
    1.9000    0.2208    0.0000 C   0  0  0  0  0  0  0  0  0  0  0  0
    6.8875   -0.1917    0.0000 O   0  0  0  0  0  0  0  0  0  0  0  0
    3.3250    0.2208    0.0000 C   0  0  0  0  0  0  0  0  0  0  0  0
    4.0375   -0.1917    0.0000 C   0  0  0  0  0  0  0  0  0  0  0  0
    5.4625   -0.1917    0.0000 C   0  0  0  0  0  0  0  0  0  0  0  0
    4.7500    1.0458    0.0000 C   0  0  0  0  0  0  0  0  0  0  0  0
    2.6125   -0.1917    0.0000 C   0  0  0  0  0  0  0  0  0  0  0  0
    6.1750    0.2208    0.0000 C   0  0  0  0  0  0  0  0  0  0  0  0
    1.8917    1.0458    0.0000 C   0  0  0  0  0  0  0  0  0  0  0  0
    5.4625    1.4583    0.0000 C   0  0  0  0  0  0  0  0  0  0  0  0
  3  2  2  0
  4  2  1  0
  5  3  1  0
  6  4  1  0
  7  2  1  0
  8  4  2  0
  9  1  2  0
 10  1  2  0
 11  1  1  0
 12  1  1  0
 13 15  1  0
 14  3  1  0
 15  7  2  0
 16  8  1  0
 17 22  1  0
 18 13  1  0
 19  5  1  0
 20 26  1  0
 21 25  1  0
 22 21  1  0
 23 17  1  0
 24 17  1  0
 25 19  1  0
 26 23  1  0
 27 19  1  0
 28 24  1  0
  6 13  2  0
 16 14  2  0
M  END
>  <ID>  (185) 


>  <MOLENAME>  (185) 
HYDROXYCHLOROQUINE SULFATE

>  <therap>  (185) 
antimalarial, lupus suppressant

>  <ref>  (185) 
Nat. Rev. Rheumatol. (2010), 6(1), 10-11; Am. J. Trop. Med. Hyg. (1956), 5, 681-5; J. Am. Chem. Soc. (1950), 72, 1814-15

>  <cas#>  (185) 
747-36-4, 118-42-3 [hydroxychloroquine]

>  <source>  (185) 
synthetic

>  <status>  (185) 
USP-XXII, INN

>  <tradename>  (185) 
PLAQUENIL

>  <SMILES>  (185) 
CCN(CCO)CCCC(C)Nc1c2ccc(Cl)cc2ncc1

>  <standardized_failed>  (185) 
False

$$$$

     RDKit          2D

 20 21  0  0  0  0  0  0  0  0999 V2000
    2.1667    0.0500    0.0000 C   0  0  0  0  0  0  0  0  0  0  0  0
    2.1667    0.8750    0.0000 C   0  0  0  0  0  0  0  0  0  0  0  0
    1.4542   -0.3667    0.0000 N   0  0  0  0  0  0  0  0  0  0  0  0
    0.7417    0.8750    0.0000 N   0  0  0  0  0  0  0  0  0  0  0  0
    0.7417    0.0458    0.0000 C   0  0  0  0  0  0  0  0  0  0  0  0
    1.4542    1.2875    0.0000 C   0  0  0  0  0  0  0  0  0  0  0  0
    2.9542   -0.2042    0.0000 N   0  0  0  0  0  0  0  0  0  0  0  0
    2.9542    1.1333    0.0000 N   0  0  0  0  0  0  0  0  0  0  0  0
    3.4417    0.4625    0.0000 C   0  0  0  0  0  0  0  0  0  0  0  0
    0.0250   -0.3667    0.0000 O   0  0  0  0  0  0  0  0  0  0  0  0
    1.4500    2.1125    0.0000 O   0  0  0  0  0  0  0  0  0  0  0  0
    0.0292    1.2833    0.0000 C   0  0  0  0  0  0  0  0  0  0  0  0
    1.4542   -1.1917    0.0000 C   0  0  0  0  0  0  0  0  0  0  0  0
   -2.8333    2.1083    0.0000 O   0  0  0  0  0  0  0  0  0  0  0  0
   -2.8333    1.2833    0.0000 C   0  0  0  0  0  0  0  0  0  0  0  0
    3.2042    1.9208    0.0000 C   0  0  0  0  0  0  0  0  0  0  0  0
   -2.1208    0.8708    0.0000 C   0  0  0  0  0  0  0  0  0  0  0  0
   -3.5458    0.8708    0.0000 C   0  0  0  0  0  0  0  0  0  0  0  0
   -0.6875    0.8708    0.0000 C   0  0  0  0  0  0  0  0  0  0  0  0
   -1.4000    1.2833    0.0000 C   0  0  0  0  0  0  0  0  0  0  0  0
  2  1  2  0
  3  1  1  0
  4  5  1  0
  5  3  1  0
  6  2  1  0
  7  1  1  0
  8  2  1  0
  9  7  2  0
 10  5  2  0
 11  6  2  0
 12  4  1  0
 13  3  1  0
 14 15  2  0
 15 17  1  0
 16  8  1  0
 17 20  1  0
 18 15  1  0
 19 12  1  0
 20 19  1  0
  8  9  1  0
  4  6  1  0
M  END
>  <ID>  (186) 


>  <MOLENAME>  (186) 
PENTOXIFYLLINE

>  <therap>  (186) 
PDE inhibitor, bronchodilator, vasodilator

>  <ref>  (186) 
Arzneim Forsch 21:1159, 1160 (1971); Drugs 34:50 (1987)

>  <cas#>  (186) 
6493-05-6

>  <source>  (186) 
synthetic; BL-191

>  <status>  (186) 
USP, INN, BAN, JAN

>  <tradename>  (186) 
PENTOXIL

>  <SMILES>  (186) 
CC(=O)CCCCn1c(=O)c2c(ncn2C)n(C)c1=O

>  <standardized_failed>  (186) 
False

$$$$

     RDKit          2D

 19 19  0  0  0  0  0  0  0  0999 V2000
    2.1625   -0.6500    0.0000 C   0  0  0  0  0  0  0  0  0  0  0  0
    2.8750   -1.0667    0.0000 N   0  0  0  0  0  0  0  0  0  0  0  0
    3.5917   -0.6542    0.0000 C   0  0  0  0  0  0  0  0  0  0  0  0
    0.7292   -0.6417    0.0000 N   0  0  0  0  0  0  0  0  0  0  0  0
    1.4417   -1.0625    0.0000 C   0  0  0  0  0  0  0  0  0  0  0  0
    2.1667    0.1750    0.0000 O   0  0  0  0  0  0  0  0  0  0  0  0
    4.3000   -1.0667    0.0000 C   0  0  0  0  0  0  0  0  0  0  0  0
    3.5875    0.1708    0.0000 C   0  0  0  0  0  0  0  0  0  0  0  0
    6.1667   -0.8750    0.0000 Cl  0  0  0  0  0  0  0  0  0  0  0  0
    0.7292    0.1833    0.0000 C   0  0  0  0  0  0  0  0  0  0  0  0
    0.0250   -1.0625    0.0000 C   0  0  0  0  0  0  0  0  0  0  0  0
    5.0167    0.1625    0.0000 C   0  0  0  0  0  0  0  0  0  0  0  0
    1.4417   -1.8875    0.0000 C   0  0  0  0  0  0  0  0  0  0  0  0
    4.3000    0.5833    0.0000 C   0  0  0  0  0  0  0  0  0  0  0  0
    5.0167   -0.6625    0.0000 C   0  0  0  0  0  0  0  0  0  0  0  0
    2.8750    0.5750    0.0000 C   0  0  0  0  0  0  0  0  0  0  0  0
    4.2917   -1.8917    0.0000 C   0  0  0  0  0  0  0  0  0  0  0  0
    0.0250   -1.8875    0.0000 C   0  0  0  0  0  0  0  0  0  0  0  0
    0.7292   -2.2917    0.0000 C   0  0  0  0  0  0  0  0  0  0  0  0
  2  1  1  0
  3  2  1  0
  4  5  1  0
  5  1  1  0
  6  1  2  0
  7  3  2  0
  8  3  1  0
 10  4  1  0
 11  4  1  0
 12 14  1  0
 13  5  1  0
 14  8  2  0
 15  7  1  0
 16  8  1  0
 17  7  1  0
 18 19  1  0
 19 13  1  0
 18 11  1  0
 12 15  2  0
M  END
>  <ID>  (187) 


>  <MOLENAME>  (187) 
MEPIVACAINE HYDROCHLORIDE

>  <therap>  (187) 
anesthetic (local)

>  <ref>  (187) 
Mol Pharmacol 54: 162 (1998)

>  <cas#>  (187) 
1722-62-9, 96-88-8 [mepivacaine]

>  <source>  (187) 
synthetic

>  <status>  (187) 
USP, INN, BAN, JAN

>  <tradename>  (187) 
CARBOCAINE

>  <SMILES>  (187) 
Cc1cccc(C)c1NC(=O)C1CCCCN1C

>  <standardized_failed>  (187) 
False

$$$$

     RDKit          2D

 22 23  0  0  0  0  0  0  0  0999 V2000
    4.6167   -1.9792    0.0000 N   0  0  0  0  0  0  0  0  0  0  0  0
    4.5292   -1.1542    0.0000 C   0  0  0  0  0  0  0  0  0  0  0  0
    6.7542   -2.3875    0.0000 C   0  0  0  0  0  0  0  0  0  0  0  0
    3.8667   -2.3125    0.0000 C   0  0  0  0  0  0  0  0  0  0  0  0
    3.7250   -0.9875    0.0000 N   0  0  0  0  0  0  0  0  0  0  0  0
    7.4750   -3.6292    0.0000 N   0  0  0  0  0  0  0  0  0  0  0  0
    5.3292   -2.3875    0.0000 C   0  0  0  0  0  0  0  0  0  0  0  0
    3.3125   -1.7000    0.0000 C   0  0  0  0  0  0  0  0  0  0  0  0
    6.7542   -3.2167    0.0000 C   0  0  0  0  0  0  0  0  0  0  0  0
    7.4667   -1.9667    0.0000 C   0  0  0  0  0  0  0  0  0  0  0  0
    6.0417   -1.9750    0.0000 C   0  0  0  0  0  0  0  0  0  0  0  0
    6.0417   -3.6292    0.0000 C   0  0  0  0  0  0  0  0  0  0  0  0
    5.1417   -0.6042    0.0000 O   0  0  0  0  0  0  0  0  0  0  0  0
    7.4792   -4.4417    0.0000 O   0  0  0  0  0  0  0  0  0  0  0  0
    8.1917   -3.2125    0.0000 O   0  0  0  0  0  0  0  0  0  0  0  0
    3.6917   -3.1167    0.0000 O   0  0  0  0  0  0  0  0  0  0  0  0
    5.3292   -3.2167    0.0000 C   0  0  0  0  0  0  0  0  0  0  0  0
    8.1792   -1.5542    0.0000 F   0  0  0  0  0  0  0  0  0  0  0  0
    8.1875   -2.3792    0.0000 F   0  0  0  0  0  0  0  0  0  0  0  0
    7.4667   -1.1417    0.0000 F   0  0  0  0  0  0  0  0  0  0  0  0
    2.5917   -1.2875    0.0000 C   0  0  0  0  0  0  0  0  0  0  0  0
    2.7250   -2.2792    0.0000 C   0  0  0  0  0  0  0  0  0  0  0  0
  2  1  1  0
  3 11  2  0
  4  1  1  0
  5  2  1  0
  6  9  1  0
  7  1  1  0
  8  4  1  0
  9 12  2  0
 10  3  1  0
 11  7  1  0
 12 17  1  0
 13  2  2  0
 14  6  1  0
 15  6  2  0
 16  4  2  0
 17  7  2  0
 18 10  1  0
 19 10  1  0
 20 10  1  0
 21  8  1  0
 22  8  1  0
  8  5  1  0
  3  9  1  0
M  CHG  2   6   1  14  -1
M  END
>  <ID>  (188) 


>  <MOLENAME>  (188) 
NILUTAMIDE

>  <therap>  (188) 
antiandrogen

>  <ref>  (188) 
Pharmacotherapy 31: 65 (1997)

>  <cas#>  (188) 
63612-50-0

>  <source>  (188) 
synthetic; RU-23908

>  <status>  (188) 
USAN, INN, BAN

>  <tradename>  (188) 
NILANDRON

>  <SMILES>  (188) 
CC1(C)NC(=O)N(c2ccc([N+](=O)[O-])c(C(F)(F)F)c2)C1=O

>  <standardized_failed>  (188) 
False

$$$$

     RDKit          2D

 10  8  0  0  0  0  0  0  0  0999 V2000
    7.1542   -3.7250    0.0000 C   0  0  0  0  0  0  0  0  0  0  0  0
    7.8667   -3.3125    0.0000 O   0  0  0  0  0  0  0  0  0  0  0  0
    5.0125   -2.4917    0.0000 O   0  0  0  0  0  0  0  0  0  0  0  0
    5.0167   -3.3167    0.0000 C   0  0  0  0  0  0  0  0  0  0  0  0
    6.4417   -3.3167    0.0000 C   0  0  0  0  0  0  0  0  0  0  0  0
    7.1542   -4.5500    0.0000 O   0  0  0  0  0  0  0  0  0  0  0  0
    5.7292   -3.7292    0.0000 C   0  0  0  0  0  0  0  0  0  0  0  0
    1.1167   -3.6792    0.0000 Cl  0  0  0  0  0  0  0  0  0  0  0  0
    3.5917   -3.3250    0.0000 N   0  0  0  0  0  0  0  0  0  0  0  0
    4.3042   -3.7292    0.0000 C   0  0  0  0  0  0  0  0  0  0  0  0
  2  1  2  0
  3  4  2  0
  4  7  1  0
  5  1  1  0
  6  1  1  0
  7  5  1  0
  9 10  1  0
 10  4  1  0
M  END
>  <ID>  (189) 


>  <MOLENAME>  (189) 
AMINOLEVULINIC ACID HYDROCHLORIDE

>  <therap>  (189) 
antineoplastic

>  <ref>  (189) 
J Photochem Photobiol B 41:145 (1997); Hautarzt 51:528 (2000); Eur J Dermatol 10:351 (2000)

>  <cas#>  (189) 
5451-09-2

>  <source>  (189) 
synthetic

>  <status>  (189) 
USAN

>  <tradename>  (189) 
LEVULAN

>  <SMILES>  (189) 
NCC(=O)CCC(=O)O

>  <standardized_failed>  (189) 
False

$$$$

     RDKit          2D

 16 17  0  0  0  0  0  0  0  0999 V2000
    4.0292   -1.3417    0.0000 N   0  0  0  0  0  0  0  0  0  0  0  0
    3.3167   -0.9250    0.0000 C   0  0  0  0  0  0  0  0  0  0  0  0
    4.7875   -1.0042    0.0000 C   0  0  0  0  0  0  0  0  0  0  0  0
    2.6042   -1.3375    0.0000 C   0  0  0  0  0  0  0  0  0  0  0  0
    3.3250   -0.0917    0.0000 O   0  0  0  0  0  0  0  0  0  0  0  0
    4.9625   -0.1917    0.0000 O   0  0  0  0  0  0  0  0  0  0  0  0
    1.8917   -0.9167    0.0000 C   0  0  0  0  0  0  0  0  0  0  0  0
    2.6042   -2.1625    0.0000 C   0  0  0  0  0  0  0  0  0  0  0  0
    4.1167   -2.1542    0.0000 C   0  0  0  0  0  0  0  0  0  0  0  0
    1.1792   -2.1625    0.0000 C   0  0  0  0  0  0  0  0  0  0  0  0
    1.8917   -2.5667    0.0000 C   0  0  0  0  0  0  0  0  0  0  0  0
    1.1792   -1.3375    0.0000 C   0  0  0  0  0  0  0  0  0  0  0  0
    5.3375   -1.6167    0.0000 C   0  0  0  0  0  0  0  0  0  0  0  0
    0.4667   -2.5750    0.0000 O   0  0  0  0  0  0  0  0  0  0  0  0
    4.9250   -2.3292    0.0000 C   0  0  0  0  0  0  0  0  0  0  0  0
   -0.2458   -2.1625    0.0000 C   0  0  0  0  0  0  0  0  0  0  0  0
  2  1  1  0
  3  1  1  0
  4  2  1  0
  5  2  2  0
  6  3  2  0
  7  4  2  0
  8  4  1  0
  9  1  1  0
 10 11  1  0
 11  8  2  0
 12  7  1  0
 13  3  1  0
 14 10  1  0
 15  9  1  0
 16 14  1  0
 15 13  1  0
 12 10  2  0
M  END
>  <ID>  (190) 


>  <MOLENAME>  (190) 
ANIRACETAM

>  <therap>  (190) 
cognitive enhancer

>  <ref>  (190) 
Clin Drug Invest 5 Suppl 1:4, 50, 60, 73, 96 (1993)

>  <cas#>  (190) 
72432-10-1

>  <source>  (190) 
synthetic; Ro-13-5057

>  <status>  (190) 
USAN, INN, JAN

>  <tradename>  (190) 
nan

>  <SMILES>  (190) 
COc1ccc(C(=O)N2CCCC2=O)cc1

>  <standardized_failed>  (190) 
False

$$$$

     RDKit          2D

 16 17  0  0  0  0  0  0  0  0999 V2000
    4.8125   -2.1375    0.0000 C   0  0  0  0  0  0  0  0  0  0  0  0
    4.8125   -2.9625    0.0000 N   0  0  0  0  0  0  0  0  0  0  0  0
    4.0250   -1.8792    0.0000 O   0  0  0  0  0  0  0  0  0  0  0  0
    5.5250   -1.7167    0.0000 O   0  0  0  0  0  0  0  0  0  0  0  0
    3.5417   -2.5542    0.0000 C   0  0  0  0  0  0  0  0  0  0  0  0
    1.4792   -1.8417    0.0000 C   0  0  0  0  0  0  0  0  0  0  0  0
    0.2417   -1.1292    0.0000 C   0  0  0  0  0  0  0  0  0  0  0  0
    0.2417   -2.5542    0.0000 C   0  0  0  0  0  0  0  0  0  0  0  0
    4.0125   -3.1750    0.0000 C   0  0  0  0  0  0  0  0  0  0  0  0
    2.3042   -1.8417    0.0000 O   0  0  0  0  0  0  0  0  0  0  0  0
    1.0667   -2.5542    0.0000 C   0  0  0  0  0  0  0  0  0  0  0  0
    1.0667   -1.1292    0.0000 C   0  0  0  0  0  0  0  0  0  0  0  0
   -0.1708   -1.8417    0.0000 C   0  0  0  0  0  0  0  0  0  0  0  0
    2.7167   -2.5542    0.0000 C   0  0  0  0  0  0  0  0  0  0  0  0
   -0.1750   -0.4167    0.0000 C   0  0  0  0  0  0  0  0  0  0  0  0
   -0.1708   -3.2667    0.0000 C   0  0  0  0  0  0  0  0  0  0  0  0
  2  1  1  0
  3  1  1  0
  4  1  2  0
  5  3  1  0
  6 10  1  0
  7 12  2  0
  8 11  1  0
  9  2  1  0
 10 14  1  0
 11  6  2  0
 12  6  1  0
 13  7  1  0
 14  5  1  0
 15  7  1  0
 16  8  1  0
  9  5  1  0
  8 13  2  0
M  END
>  <ID>  (191) 


>  <MOLENAME>  (191) 
METAXALONE

>  <therap>  (191) 
muscle relaxant (skeletal)

>  <ref>  (191) 
Clin. Ther. (2004), 26(9), 1355-1367; J. Pain Symptom Manage. (2004), 28(2), 140-175; Int. Congr. Symp. Ser. - R. Soc. Med. (2000), 245, 45-53

>  <cas#>  (191) 
1665-48-1

>  <source>  (191) 
synthetic

>  <status>  (191) 
USAN, INN, BAN

>  <tradename>  (191) 
SKELAXON

>  <SMILES>  (191) 
Cc1cc(OCC2CNC(=O)O2)cc(C)c1

>  <standardized_failed>  (191) 
False

$$$$

     RDKit          2D

 18 17  0  0  0  0  0  0  0  0999 V2000
    3.1625   -2.7042    0.0000 C   0  0  0  0  0  0  0  0  0  0  0  0
    4.5917   -2.7042    0.0000 C   0  0  0  0  0  0  0  0  0  0  0  0
    3.8750   -2.2917    0.0000 N   0  0  0  0  0  0  0  0  0  0  0  0
    2.4417   -2.3000    0.0000 N   0  0  0  0  0  0  0  0  0  0  0  0
    3.1625   -3.5292    0.0000 N   0  0  0  0  0  0  0  0  0  0  0  0
    4.5917   -3.5292    0.0000 N   0  0  0  0  0  0  0  0  0  0  0  0
    5.3042   -2.2875    0.0000 N   0  0  0  0  0  0  0  0  0  0  0  0
    1.7292   -2.7167    0.0000 C   0  0  0  0  0  0  0  0  0  0  0  0
    0.3042   -3.5417    0.0000 C   0  0  0  0  0  0  0  0  0  0  0  0
   -0.4125   -3.9542    0.0000 Cl  0  0  0  0  0  0  0  0  0  0  0  0
    7.3542   -3.8417    0.0000 Cl  0  0  0  0  0  0  0  0  0  0  0  0
    1.0167   -2.3042    0.0000 C   0  0  0  0  0  0  0  0  0  0  0  0
    1.7292   -3.5417    0.0000 C   0  0  0  0  0  0  0  0  0  0  0  0
    0.3042   -2.7167    0.0000 C   0  0  0  0  0  0  0  0  0  0  0  0
    1.0167   -3.9542    0.0000 C   0  0  0  0  0  0  0  0  0  0  0  0
    6.0167   -2.7000    0.0000 C   0  0  0  0  0  0  0  0  0  0  0  0
    6.0167   -3.5250    0.0000 C   0  0  0  0  0  0  0  0  0  0  0  0
    6.7292   -2.2792    0.0000 C   0  0  0  0  0  0  0  0  0  0  0  0
  2  3  1  0
  3  1  1  0
  4  1  1  0
  5  1  2  0
  6  2  2  0
  7  2  1  0
  8  4  1  0
  9 14  2  0
 10  9  1  0
 12  8  2  0
 13  8  1  0
 14 12  1  0
 15 13  2  0
 16  7  1  0
 17 16  1  0
 18 16  1  0
 15  9  1  0
M  END
>  <ID>  (192) 


>  <MOLENAME>  (192) 
CHLOROGUANIDE HYDROCHLORIDE

>  <therap>  (192) 
antimalarial

>  <ref>  (192) 
Drugs (2003), 63(6), 597-623; Angew. Chem. (Int. Ed. Engl.) (2003), 42(43), 5274-93; Nature (1947), 160(4066), 463

>  <cas#>  (192) 
637-32-1

>  <source>  (192) 
synthetic

>  <status>  (192) 
USP-XIV, INN, BAN

>  <tradename>  (192) 
PALUDRINE

>  <SMILES>  (192) 
CC(C)NC(=N)NC(=N)Nc1ccc(Cl)cc1

>  <standardized_failed>  (192) 
False

$$$$

     RDKit          2D

 52 54  0  0  0  0  0  0  0  0999 V2000
    7.5250   -2.9667    0.0000 C   0  0  0  0  0  0  0  0  0  0  0  0
    4.7000   -2.8292    0.0000 C   0  0  0  0  0  0  0  0  0  0  0  0
    3.2042   -2.1542    0.0000 C   0  0  0  0  0  0  0  0  0  0  0  0
    2.1667   -0.1792    0.0000 C   0  0  0  0  0  0  0  0  0  0  0  0
    3.9917   -2.3917    0.0000 C   0  0  0  0  0  0  0  0  0  0  0  0
    8.2417   -2.5542    0.0000 C   0  0  0  0  0  0  0  0  0  0  0  0
    6.0417   -2.1917    0.0000 C   0  0  0  0  0  0  0  0  0  0  0  0
    5.5292   -2.8292    0.0000 C   0  0  0  0  0  0  0  0  0  0  0  0
    3.5000    0.3458    0.0000 C   0  0  0  0  0  0  0  0  0  0  0  0
    2.7042   -1.5042    0.0000 O   0  0  0  0  0  0  0  0  0  0  0  0
    2.6792    0.4708    0.0000 C   0  0  0  0  0  0  0  0  0  0  0  0
    3.8042   -0.4167    0.0000 C   0  0  0  0  0  0  0  0  0  0  0  0
    6.8042   -2.5667    0.0000 O   0  0  0  0  0  0  0  0  0  0  0  0
    3.9042   -5.6417    0.0000 C   0  0  0  0  0  0  0  0  0  0  0  0
    8.9542   -2.9667    0.0000 C   0  0  0  0  0  0  0  0  0  0  0  0
    5.7417   -1.4292    0.0000 C   0  0  0  0  0  0  0  0  0  0  0  0
    3.9042   -4.2042    0.0000 C   0  0  0  0  0  0  0  0  0  0  0  0
    4.3167   -4.9167    0.0000 C   0  0  0  0  0  0  0  0  0  0  0  0
    7.5250   -3.7792    0.0000 O   0  0  0  0  0  0  0  0  0  0  0  0
    3.0750   -4.2042    0.0000 O   0  0  0  0  0  0  0  0  0  0  0  0
    2.0542   -1.0042    0.0000 C   0  0  0  0  0  0  0  0  0  0  0  0
    3.0792   -5.6417    0.0000 C   0  0  0  0  0  0  0  0  0  0  0  0
    4.3125   -3.4917    0.0000 O   0  0  0  0  0  0  0  0  0  0  0  0
    2.6625   -4.9292    0.0000 C   0  0  0  0  0  0  0  0  0  0  0  0
    4.6167   -0.5292    0.0000 C   0  0  0  0  0  0  0  0  0  0  0  0
    4.9250   -1.2917    0.0000 C   0  0  0  0  0  0  0  0  0  0  0  0
    8.9542   -3.7917    0.0000 C   0  0  0  0  0  0  0  0  0  0  0  0
    9.6625   -2.5667    0.0000 N   0  0  0  0  0  0  0  0  0  0  0  0
    2.7292   -2.8542    0.0000 O   0  0  0  0  0  0  0  0  0  0  0  0
    8.2417   -4.2042    0.0000 C   0  0  0  0  0  0  0  0  0  0  0  0
    3.2875   -1.0667    0.0000 O   0  0  0  0  0  0  0  0  0  0  0  0
    1.5167    0.3208    0.0000 O   0  0  0  0  0  0  0  0  0  0  0  0
    8.2542   -1.7167    0.0000 O   0  0  0  0  0  0  0  0  0  0  0  0
    2.3667    1.2333    0.0000 O   0  0  0  0  0  0  0  0  0  0  0  0
    3.4917   -6.3917    0.0000 O   0  0  0  0  0  0  0  0  0  0  0  0
    6.5417   -1.2542    0.0000 O   0  0  0  0  0  0  0  0  0  0  0  0
    2.6667   -6.3542    0.0000 O   0  0  0  0  0  0  0  0  0  0  0  0
    1.4125   -0.4917    0.0000 C   0  0  0  0  0  0  0  0  0  0  0  0
    4.3125   -1.6042    0.0000 C   0  0  0  0  0  0  0  0  0  0  0  0
    5.8917   -3.5792    0.0000 C   0  0  0  0  0  0  0  0  0  0  0  0
    4.0167    1.0083    0.0000 C   0  0  0  0  0  0  0  0  0  0  0  0
    4.5125   -6.1667    0.0000 C   0  0  0  0  0  0  0  0  0  0  0  0
    6.0042   -0.6417    0.0000 C   0  0  0  0  0  0  0  0  0  0  0  0
    1.2875   -1.3167    0.0000 C   0  0  0  0  0  0  0  0  0  0  0  0
    1.8292   -4.9417    0.0000 C   0  0  0  0  0  0  0  0  0  0  0  0
    5.1375    0.1208    0.0000 C   0  0  0  0  0  0  0  0  0  0  0  0
    9.6667   -1.7417    0.0000 C   0  0  0  0  0  0  0  0  0  0  0  0
   10.3625   -2.9792    0.0000 C   0  0  0  0  0  0  0  0  0  0  0  0
    8.2292   -5.0292    0.0000 C   0  0  0  0  0  0  0  0  0  0  0  0
    3.9042   -7.1167    0.0000 C   0  0  0  0  0  0  0  0  0  0  0  0
    6.9500   -0.5417    0.0000 C   0  0  0  0  0  0  0  0  0  0  0  0
    1.1667   -2.1292    0.0000 C   0  0  0  0  0  0  0  0  0  0  0  0
  2  8  1  0
  3  5  1  0
  4 11  1  0
  5  2  1  0
  6  1  1  0
  7 13  1  6
  8  7  1  0
  9 12  1  0
 10  3  1  0
 11  9  1  0
 12 25  1  0
  1 13  1  1
 14 18  1  0
 15  6  1  0
 16  7  1  0
 17 23  1  1
 18 17  1  0
 19  1  1  0
 20 17  1  0
 21 10  1  0
 22 24  1  0
  2 23  1  6
 24 20  1  0
 25 26  1  0
 26 16  1  0
 27 30  1  0
 15 28  1  1
 29  3  2  0
 30 19  1  0
 31 12  2  0
  4 32  1  0
  6 33  1  6
 11 34  1  6
 14 35  1  0
 16 36  1  0
 22 37  1  1
  4 38  1  6
  5 39  1  6
  8 40  1  1
  9 41  1  1
 14 42  1  6
 16 43  1  6
 21 44  1  6
 24 45  1  6
 25 46  1  6
 47 28  1  0
 48 28  1  0
 30 49  1  1
 50 35  1  0
 51 36  1  0
 52 44  1  0
 27 15  1  0
  4 21  1  0
 22 14  1  0
M  END
>  <ID>  (193) 


>  <MOLENAME>  (193) 
CLARITHROMYCIN

>  <therap>  (193) 
antibacterial

>  <ref>  (193) 
Antimicrob Agents Chemother 30:865 (1986); J Antimicrob Chemother 27 Suppl A:1 (1991)

>  <cas#>  (193) 
81103-11-9

>  <source>  (193) 
Streptomyces erythreus; TE-031

>  <status>  (193) 
USP, INN, BAN, JAN

>  <tradename>  (193) 
BIAXIN

>  <SMILES>  (193) 
CC[C@H]1OC(=O)[C@H](C)[C@@H](O[C@H]2C[C@@](C)(OC)[C@@H](O)[C@H](C)O2)[C@H](C)[C@@H](O[C@@H]2O[C@H](C)C[C@H](N(C)C)[C@H]2O)[C@](C)(OC)C[C@@H](C)C(=O)[C@H](C)[C@@H](O)[C@]1(C)O

>  <standardized_failed>  (193) 
False

$$$$

     RDKit          2D

 18 18  0  0  0  0  0  0  0  0999 V2000
    9.9000   -4.2125    0.0000 S   0  0  0  0  0  0  0  0  0  0  0  0
    5.6750   -3.9333    0.0000 C   0  0  0  0  0  0  0  0  0  0  0  0
    6.3875   -3.5167    0.0000 N   0  0  0  0  0  0  0  0  0  0  0  0
    4.9583   -3.5208    0.0000 N   0  0  0  0  0  0  0  0  0  0  0  0
   10.7250   -4.2125    0.0000 O   0  0  0  0  0  0  0  0  0  0  0  0
    9.8917   -5.0375    0.0000 O   0  0  0  0  0  0  0  0  0  0  0  0
    5.6750   -4.7625    0.0000 C   0  0  0  0  0  0  0  0  0  0  0  0
    4.9583   -5.1750    0.0000 N   0  0  0  0  0  0  0  0  0  0  0  0
    9.0750   -4.2125    0.0000 O   0  0  0  0  0  0  0  0  0  0  0  0
    9.8917   -3.3875    0.0000 O   0  0  0  0  0  0  0  0  0  0  0  0
    6.3792   -2.6917    0.0000 C   0  0  0  0  0  0  0  0  0  0  0  0
    7.1000   -3.9292    0.0000 C   0  0  0  0  0  0  0  0  0  0  0  0
    4.2458   -3.9375    0.0000 C   0  0  0  0  0  0  0  0  0  0  0  0
    4.2458   -4.7625    0.0000 C   0  0  0  0  0  0  0  0  0  0  0  0
    6.3917   -5.1750    0.0000 C   0  0  0  0  0  0  0  0  0  0  0  0
    7.8125   -3.5167    0.0000 C   0  0  0  0  0  0  0  0  0  0  0  0
    7.0958   -2.2792    0.0000 C   0  0  0  0  0  0  0  0  0  0  0  0
    7.8125   -2.6917    0.0000 C   0  0  0  0  0  0  0  0  0  0  0  0
  3  2  1  0
  4  2  2  0
  5  1  2  0
  6  1  2  0
  7  2  1  0
  8  7  2  0
  9  1  1  0
 10  1  1  0
 11  3  1  0
 12  3  1  0
 13  4  1  0
 14 13  2  0
 15  7  1  0
 16 12  1  0
 17 11  1  0
 18 16  1  0
  8 14  1  0
 17 18  1  0
M  END
>  <ID>  (194) 


>  <MOLENAME>  (194) 
MODALINE SULFATE

>  <therap>  (194) 
antidepressant, antisecretory

>  <ref>  (194) 
J Clin Pharmacol 4: 86, 288 (1964); Psychosomatics 1965 6:1 (1965); Biochem Pharmacol 15:1309 (1966)

>  <cas#>  (194) 
2856-75-9

>  <source>  (194) 
synthetic; W-3207B

>  <status>  (194) 
USAN, INN

>  <tradename>  (194) 
nan

>  <SMILES>  (194) 
Cc1nccnc1N1CCCCC1

>  <standardized_failed>  (194) 
False

$$$$

     RDKit          2D

 26 28  0  0  0  0  0  0  0  0999 V2000
    8.0292   -1.8500    0.0000 N   0  0  0  0  0  0  0  0  0  0  0  0
    7.3167   -1.4417    0.0000 C   0  0  0  0  0  0  0  0  0  0  0  0
    6.2292   -1.9792    0.0000 C   0  0  0  0  0  0  0  0  0  0  0  0
    4.8042   -1.9792    0.0000 C   0  0  0  0  0  0  0  0  0  0  0  0
    3.9167   -0.7583    0.0000 N   0  0  0  0  0  0  0  0  0  0  0  0
    5.5167   -1.5667    0.0000 N   0  0  0  0  0  0  0  0  0  0  0  0
    8.7417   -1.4417    0.0000 C   0  0  0  0  0  0  0  0  0  0  0  0
    7.7000   -2.8750    0.0000 N   0  0  0  0  0  0  0  0  0  0  0  0
    8.8250   -0.6208    0.0000 C   0  0  0  0  0  0  0  0  0  0  0  0
    4.0917   -1.5667    0.0000 C   0  0  0  0  0  0  0  0  0  0  0  0
    3.1000   -0.6750    0.0000 C   0  0  0  0  0  0  0  0  0  0  0  0
    6.9417   -3.2167    0.0000 C   0  0  0  0  0  0  0  0  0  0  0  0
    6.2292   -2.8042    0.0000 C   0  0  0  0  0  0  0  0  0  0  0  0
    7.8375   -4.2042    0.0000 N   0  0  0  0  0  0  0  0  0  0  0  0
    8.2500   -3.4875    0.0000 C   0  0  0  0  0  0  0  0  0  0  0  0
    7.3167   -0.6167    0.0000 O   0  0  0  0  0  0  0  0  0  0  0  0
    7.0333   -4.0333    0.0000 C   0  0  0  0  0  0  0  0  0  0  0  0
    4.8042   -2.8042    0.0000 O   0  0  0  0  0  0  0  0  0  0  0  0
    8.1583   -0.1333    0.0000 O   0  0  0  0  0  0  0  0  0  0  0  0
    2.6833    0.0375    0.0000 O   0  0  0  0  0  0  0  0  0  0  0  0
    3.3792   -1.9792    0.0000 C   0  0  0  0  0  0  0  0  0  0  0  0
    9.5792   -0.2833    0.0000 N   0  0  0  0  0  0  0  0  0  0  0  0
    8.2000   -2.6583    0.0000 C   0  0  0  0  0  0  0  0  0  0  0  0
    2.7667   -1.4250    0.0000 C   0  0  0  0  0  0  0  0  0  0  0  0
    9.3500   -1.9917    0.0000 C   0  0  0  0  0  0  0  0  0  0  0  0
    9.0167   -2.7417    0.0000 C   0  0  0  0  0  0  0  0  0  0  0  0
  2  1  1  0
  3  2  1  0
  4  6  1  0
  5 10  1  0
  6  3  1  0
  7  1  1  0
  8 12  1  0
  9  7  1  0
 10  4  1  0
 11  5  1  0
 12 13  1  0
 13  3  1  0
 14 17  1  0
 15  8  2  0
 16  2  2  0
 17 12  2  0
 18  4  2  0
 19  9  2  0
 20 11  2  0
 21 10  1  0
 22  9  1  0
 23  1  1  0
 24 21  1  0
 25  7  1  0
 26 23  1  0
 25 26  1  0
 15 14  1  0
 24 11  1  0
M  END
>  <ID>  (195) 


>  <MOLENAME>  (195) 
PROTIRELIN

>  <therap>  (195) 
prothyrotropin

>  <ref>  (195) 
Acta Pharmacologica Toxicologica 51: 250 (1982); Brain Res 1054:45 (2005); 

>  <cas#>  (195) 
24305-27-9

>  <source>  (195) 
synthetic; Abbott-38579

>  <status>  (195) 
USAN, INN, BAN, JAN

>  <tradename>  (195) 
THYPINONE

>  <SMILES>  (195) 
NC(=O)C1CCCN1C(=O)C(Cc1c[nH]cn1)NC(=O)C1CCC(=O)N1

>  <standardized_failed>  (195) 
False

$$$$

     RDKit          2D

 13 14  0  0  0  0  0  0  0  0999 V2000
    6.5167  -10.8667    0.0000 C   0  0  0  0  0  0  0  0  0  0  0  0
    6.5167  -10.0417    0.0000 C   0  0  0  0  0  0  0  0  0  0  0  0
    5.8042  -11.2792    0.0000 N   0  0  0  0  0  0  0  0  0  0  0  0
    5.0917  -10.8667    0.0000 C   0  0  0  0  0  0  0  0  0  0  0  0
    5.0917  -10.0417    0.0000 N   0  0  0  0  0  0  0  0  0  0  0  0
    7.3042  -11.1167    0.0000 N   0  0  0  0  0  0  0  0  0  0  0  0
    5.8042   -9.6292    0.0000 C   0  0  0  0  0  0  0  0  0  0  0  0
    7.3042   -9.7875    0.0000 N   0  0  0  0  0  0  0  0  0  0  0  0
    7.7875  -10.4500    0.0000 C   0  0  0  0  0  0  0  0  0  0  0  0
    4.3667  -11.2792    0.0000 O   0  0  0  0  0  0  0  0  0  0  0  0
    5.8042   -8.8042    0.0000 O   0  0  0  0  0  0  0  0  0  0  0  0
    5.8042  -12.1042    0.0000 C   0  0  0  0  0  0  0  0  0  0  0  0
    7.5542   -9.0000    0.0000 C   0  0  0  0  0  0  0  0  0  0  0  0
  2  1  2  0
  3  1  1  0
  4  3  1  0
  5  4  1  0
  6  1  1  0
  7  2  1  0
  8  2  1  0
  9  6  2  0
 10  4  2  0
 11  7  2  0
 12  3  1  0
 13  8  1  0
  8  9  1  0
  5  7  1  0
M  END
>  <ID>  (196) 


>  <MOLENAME>  (196) 
THEOBROMINE

>  <therap>  (196) 
diuretic, bronchodilator, cardiotonic

>  <ref>  (196) 
J Allergy Clin Immunol 76:703 (1985)

>  <cas#>  (196) 
83-67-0

>  <source>  (196) 
Camelia, Theobroma, Cola spp

>  <status>  (196) 
NF-XII, BAN

>  <tradename>  (196) 
THESODATE

>  <SMILES>  (196) 
Cn1cnc2c1c(=O)[nH]c(=O)n2C

>  <standardized_failed>  (196) 
False

$$$$

     RDKit          2D

 33 34  0  0  0  0  0  0  0  0999 V2000
   10.4583   -0.2042    0.0000 N   0  0  0  0  0  0  0  0  0  0  0  0
   10.1667   -0.9792    0.0000 C   0  0  0  0  0  0  0  0  0  0  0  0
    9.8250    0.3083    0.0000 C   0  0  0  0  0  0  0  0  0  0  0  0
    9.3500   -0.9292    0.0000 S   0  0  0  0  0  0  0  0  0  0  0  0
    9.1375   -0.1417    0.0000 C   0  0  0  0  0  0  0  0  0  0  0  0
    2.7250   -1.3792    0.0000 C   0  0  0  0  0  0  0  0  0  0  0  0
   -0.2917    0.6958    0.0000 C   0  0  0  0  0  0  0  0  0  0  0  0
    0.9000    1.3833    0.0000 C   0  0  0  0  0  0  0  0  0  0  0  0
    0.3042    0.3500    0.0000 C   0  0  0  0  0  0  0  0  0  0  0  0
    0.9000    0.6958    0.0000 C   0  0  0  0  0  0  0  0  0  0  0  0
    2.0083   -0.9667    0.0000 N   0  0  0  0  0  0  0  0  0  0  0  0
   10.6167   -1.6667    0.0000 O   0  0  0  0  0  0  0  0  0  0  0  0
    3.4375   -0.9667    0.0000 N   0  0  0  0  0  0  0  0  0  0  0  0
    9.8667    1.1333    0.0000 O   0  0  0  0  0  0  0  0  0  0  0  0
    8.4250    0.2708    0.0000 C   0  0  0  0  0  0  0  0  0  0  0  0
    0.3042    1.7250    0.0000 O   0  0  0  0  0  0  0  0  0  0  0  0
   -0.8833    0.3500    0.0000 O   0  0  0  0  0  0  0  0  0  0  0  0
    7.7125   -0.1417    0.0000 C   0  0  0  0  0  0  0  0  0  0  0  0
    6.2875   -0.9542    0.0000 C   0  0  0  0  0  0  0  0  0  0  0  0
   -0.2917    1.3833    0.0000 O   0  0  0  0  0  0  0  0  0  0  0  0
    1.4917    1.7250    0.0000 O   0  0  0  0  0  0  0  0  0  0  0  0
    6.9917    0.2708    0.0000 C   0  0  0  0  0  0  0  0  0  0  0  0
    7.7125   -0.9667    0.0000 C   0  0  0  0  0  0  0  0  0  0  0  0
    6.2875   -0.1417    0.0000 C   0  0  0  0  0  0  0  0  0  0  0  0
    7.0000   -1.3667    0.0000 C   0  0  0  0  0  0  0  0  0  0  0  0
    5.5750   -1.3792    0.0000 O   0  0  0  0  0  0  0  0  0  0  0  0
    4.8625   -0.9667    0.0000 C   0  0  0  0  0  0  0  0  0  0  0  0
    4.1500   -1.3792    0.0000 C   0  0  0  0  0  0  0  0  0  0  0  0
    2.7250   -2.2167    0.0000 C   0  0  0  0  0  0  0  0  0  0  0  0
    1.3000   -1.3917    0.0000 C   0  0  0  0  0  0  0  0  0  0  0  0
    3.4375   -0.1417    0.0000 C   0  0  0  0  0  0  0  0  0  0  0  0
    2.0083   -2.6292    0.0000 C   0  0  0  0  0  0  0  0  0  0  0  0
    1.3000   -2.2167    0.0000 C   0  0  0  0  0  0  0  0  0  0  0  0
  2  1  1  0
  3  1  1  0
  4  2  1  0
  5  3  1  0
  6 13  1  0
  8 10  1  0
  9  7  1  0
 10  9  2  0
 11  6  2  0
 12  2  2  0
 13 28  1  0
 14  3  2  0
 15  5  1  0
 16  8  2  0
 17  7  2  0
 18 15  1  0
 19 25  1  0
 20  7  1  0
 21  8  1  0
 22 18  2  0
 23 18  1  0
 24 22  1  0
 25 23  2  0
 26 19  1  0
 27 26  1  0
 28 27  1  0
 29  6  1  0
 30 11  1  0
 31 13  1  0
 32 29  2  0
 33 30  2  0
  4  5  1  0
 19 24  2  0
 32 33  1  0
M  END
>  <ID>  (197) 


>  <MOLENAME>  (197) 
ROSIGLITAZONE MALEATE

>  <therap>  (197) 
antidiabetic

>  <ref>  (197) 
Eur J Clin Pharmacol 55:53 (1999); Drugs 57:921 (1999)

>  <cas#>  (197) 
122320-73-4

>  <source>  (197) 
synthetic; BRL-49653

>  <status>  (197) 
USAN, INN, BAN

>  <tradename>  (197) 
AVANDIA

>  <SMILES>  (197) 
CN(CCOc1ccc(CC2SC(=O)NC2=O)cc1)c1ncccc1

>  <standardized_failed>  (197) 
False

$$$$

     RDKit          2D

 30 33  0  0  0  0  0  0  0  0999 V2000
    1.8042   -2.9042    0.0000 N   0  0  0  0  0  0  0  0  0  0  0  0
    1.0542   -2.5667    0.0000 C   0  0  0  0  0  0  0  0  0  0  0  0
    0.9167   -3.9000    0.0000 N   0  0  0  0  0  0  0  0  0  0  0  0
    0.5042   -3.1875    0.0000 C   0  0  0  0  0  0  0  0  0  0  0  0
    1.7250   -3.7292    0.0000 C   0  0  0  0  0  0  0  0  0  0  0  0
    6.0792   -2.9042    0.0000 C   0  0  0  0  0  0  0  0  0  0  0  0
    5.6667   -1.6375    0.0000 N   0  0  0  0  0  0  0  0  0  0  0  0
    5.4125   -2.4167    0.0000 N   0  0  0  0  0  0  0  0  0  0  0  0
    6.4917   -1.6292    0.0000 N   0  0  0  0  0  0  0  0  0  0  0  0
    6.7500   -2.4167    0.0000 N   0  0  0  0  0  0  0  0  0  0  0  0
    6.0917   -3.7292    0.0000 C   0  0  0  0  0  0  0  0  0  0  0  0
    5.3792   -4.1417    0.0000 C   0  0  0  0  0  0  0  0  0  0  0  0
    2.5250   -2.4917    0.0000 C   0  0  0  0  0  0  0  0  0  0  0  0
    4.6667   -3.7292    0.0000 C   0  0  0  0  0  0  0  0  0  0  0  0
   -0.3125   -3.1000    0.0000 Cl  0  0  0  0  0  0  0  0  0  0  0  0
    0.8875   -1.7667    0.0000 C   0  0  0  0  0  0  0  0  0  0  0  0
    4.6667   -2.9042    0.0000 C   0  0  0  0  0  0  0  0  0  0  0  0
    3.9500   -4.1417    0.0000 C   0  0  0  0  0  0  0  0  0  0  0  0
    3.2375   -2.9042    0.0000 C   0  0  0  0  0  0  0  0  0  0  0  0
    2.3417   -4.2792    0.0000 C   0  0  0  0  0  0  0  0  0  0  0  0
    3.2375   -3.7292    0.0000 C   0  0  0  0  0  0  0  0  0  0  0  0
    3.9500   -2.4917    0.0000 C   0  0  0  0  0  0  0  0  0  0  0  0
    6.8042   -4.1292    0.0000 C   0  0  0  0  0  0  0  0  0  0  0  0
    1.5000   -1.2125    0.0000 O   0  0  0  0  0  0  0  0  0  0  0  0
    5.3792   -4.9667    0.0000 C   0  0  0  0  0  0  0  0  0  0  0  0
    2.1667   -5.0875    0.0000 C   0  0  0  0  0  0  0  0  0  0  0  0
    2.7792   -5.6375    0.0000 C   0  0  0  0  0  0  0  0  0  0  0  0
    6.8042   -4.9667    0.0000 C   0  0  0  0  0  0  0  0  0  0  0  0
    6.0917   -5.3792    0.0000 C   0  0  0  0  0  0  0  0  0  0  0  0
    2.6167   -6.4417    0.0000 C   0  0  0  0  0  0  0  0  0  0  0  0
  2  1  1  0
  3  5  2  0
  4  2  2  0
  5  1  1  0
  6 11  1  0
  7  8  1  0
  8  6  2  0
  9 10  1  0
 10  6  1  0
 11 12  1  0
 12 14  1  0
 13  1  1  0
 14 17  2  0
 15  4  1  0
 16  2  1  0
 17 22  1  0
 18 21  2  0
 19 13  1  0
 20  5  1  0
 21 19  1  0
 22 19  2  0
 23 11  2  0
 24 16  1  0
 25 12  2  0
 26 20  1  0
 27 26  1  0
 28 29  2  0
 29 25  1  0
 30 27  1  0
  3  4  1  0
 14 18  1  0
 28 23  1  0
  7  9  2  0
M  END
>  <ID>  (198) 


>  <MOLENAME>  (198) 
LOSARTAN

>  <therap>  (198) 
antihypertensive, AT1 angiotensin II antagonist

>  <ref>  (198) 
Lancet 349:747 (1997); J Clin Hypertens 3:283 (2001); N Engl J Med 345:861 (2001)

>  <cas#>  (198) 
124750-99-8, 114798-26-4 [losartan]

>  <source>  (198) 
synthetic; DuP-753

>  <status>  (198) 
USAN, INN, BAN

>  <tradename>  (198) 
COZAAR

>  <SMILES>  (198) 
CCCCc1nc(Cl)c(CO)n1Cc1ccc(-c2ccccc2-c2nnn[nH]2)cc1

>  <standardized_failed>  (198) 
False

$$$$

     RDKit          2D

 19 20  0  0  0  0  0  0  0  0999 V2000
    2.5167   -1.9250    0.0000 C   0  0  0  0  0  0  0  0  0  0  0  0
    1.8042   -2.3417    0.0000 C   0  0  0  0  0  0  0  0  0  0  0  0
    3.2292   -2.3292    0.0000 O   0  0  0  0  0  0  0  0  0  0  0  0
    3.9417   -1.9167    0.0000 C   0  0  0  0  0  0  0  0  0  0  0  0
    4.6542   -0.6792    0.0000 C   0  0  0  0  0  0  0  0  0  0  0  0
    1.8042   -3.1667    0.0000 C   0  0  0  0  0  0  0  0  0  0  0  0
    2.5042   -1.1000    0.0000 O   0  0  0  0  0  0  0  0  0  0  0  0
    3.9375   -1.0917    0.0000 C   0  0  0  0  0  0  0  0  0  0  0  0
    5.3667   -1.0917    0.0000 C   0  0  0  0  0  0  0  0  0  0  0  0
    4.6542   -2.3292    0.0000 C   0  0  0  0  0  0  0  0  0  0  0  0
    5.3667   -1.9167    0.0000 C   0  0  0  0  0  0  0  0  0  0  0  0
    2.5167   -3.5792    0.0000 O   0  0  0  0  0  0  0  0  0  0  0  0
    1.0875   -1.9292    0.0000 C   0  0  0  0  0  0  0  0  0  0  0  0
    4.0667   -0.0917    0.0000 C   0  0  0  0  0  0  0  0  0  0  0  0
    5.2375   -0.0917    0.0000 C   0  0  0  0  0  0  0  0  0  0  0  0
    1.0875   -3.5792    0.0000 C   0  0  0  0  0  0  0  0  0  0  0  0
    6.0792   -2.3292    0.0000 C   0  0  0  0  0  0  0  0  0  0  0  0
    0.3750   -2.3417    0.0000 C   0  0  0  0  0  0  0  0  0  0  0  0
    0.3750   -3.1667    0.0000 C   0  0  0  0  0  0  0  0  0  0  0  0
  2  1  1  0
  3  1  1  0
  4  3  1  0
  5  8  1  0
  6  2  2  0
  7  1  2  0
  8  4  1  0
  9 11  1  0
 10  4  1  0
 11 10  1  0
 12  6  1  0
 13  2  1  0
 14  5  1  0
 15  5  1  0
 16  6  1  0
 17 11  1  0
 18 13  2  0
 19 18  1  0
 16 19  2  0
  9  5  1  0
M  END
>  <ID>  (199) 


>  <MOLENAME>  (199) 
HOMOSALATE

>  <therap>  (199) 
UV screen, analgesic

>  <ref>  (199) 
Int. J. Pharm. (2011), 408(1-2), 27-38; Int. J. Cosmet. Sci. (1979), 1(6), 341-61; J. Soc. Cosmet. Chem. (1978), 29(9), 525-36

>  <cas#>  (199) 
118-56-9

>  <source>  (199) 
synthetic

>  <status>  (199) 
USP, INN

>  <tradename>  (199) 
EUSOLEX

>  <SMILES>  (199) 
CC1CC(OC(=O)c2c(O)cccc2)CC(C)(C)C1

>  <standardized_failed>  (199) 
False

$$$$

     RDKit          2D

 16 17  0  0  0  0  0  0  0  0999 V2000
    3.2625   -0.8292    0.0000 C   0  0  0  0  0  0  0  0  0  0  0  0
    2.5500   -0.4167    0.0000 C   0  0  0  0  0  0  0  0  0  0  0  0
    3.2625   -1.6542    0.0000 N   0  0  0  0  0  0  0  0  0  0  0  0
    1.8417   -0.8292    0.0000 C   0  0  0  0  0  0  0  0  0  0  0  0
    3.9792   -0.4167    0.0000 O   0  0  0  0  0  0  0  0  0  0  0  0
    3.9750   -2.0667    0.0000 C   0  0  0  0  0  0  0  0  0  0  0  0
    1.8375   -1.6542    0.0000 O   0  0  0  0  0  0  0  0  0  0  0  0
    2.5542    0.4083    0.0000 C   0  0  0  0  0  0  0  0  0  0  0  0
    1.1292   -0.4167    0.0000 C   0  0  0  0  0  0  0  0  0  0  0  0
    3.9667   -2.9000    0.0000 C   0  0  0  0  0  0  0  0  0  0  0  0
    4.6875   -1.6625    0.0000 C   0  0  0  0  0  0  0  0  0  0  0  0
    1.8417    0.8208    0.0000 C   0  0  0  0  0  0  0  0  0  0  0  0
    1.1250    0.4083    0.0000 C   0  0  0  0  0  0  0  0  0  0  0  0
    4.6792   -3.3125    0.0000 C   0  0  0  0  0  0  0  0  0  0  0  0
    5.4000   -2.0792    0.0000 C   0  0  0  0  0  0  0  0  0  0  0  0
    5.3917   -2.9042    0.0000 C   0  0  0  0  0  0  0  0  0  0  0  0
  2  1  1  0
  3  1  1  0
  4  2  2  0
  5  1  2  0
  6  3  1  0
  7  4  1  0
  8  2  1  0
  9  4  1  0
 10  6  2  0
 11  6  1  0
 12  8  2  0
 13 12  1  0
 14 10  1  0
 15 11  2  0
 16 15  1  0
  9 13  2  0
 14 16  2  0
M  END
>  <ID>  (200) 


>  <MOLENAME>  (200) 
SALICYLANILIDE

>  <therap>  (200) 
antipyretic, fungicide

>  <ref>  (200) 
Arch Derm Syphilol 58:56 (1948); 67:479 (1953)

>  <cas#>  (200) 
87-17-2

>  <source>  (200) 
synthetic

>  <status>  (200) 
NF-XIII

>  <tradename>  (200) 
SALINIDOL

>  <SMILES>  (200) 
O=C(Nc1ccccc1)c1c(O)cccc1

>  <standardized_failed>  (200) 
False

$$$$

     RDKit          2D

 13 13  0  0  0  0  0  0  0  0999 V2000
    3.5167   -1.8417    0.0000 C   0  0  0  0  0  0  0  0  0  0  0  0
    3.1042   -2.5542    0.0000 C   0  0  0  0  0  0  0  0  0  0  0  0
    3.1042   -1.1292    0.0000 C   0  0  0  0  0  0  0  0  0  0  0  0
    4.3417   -1.8417    0.0000 O   0  0  0  0  0  0  0  0  0  0  0  0
    3.5167   -3.2708    0.0000 C   0  0  0  0  0  0  0  0  0  0  0  0
    3.5167   -0.4167    0.0000 C   0  0  0  0  0  0  0  0  0  0  0  0
    2.2792   -1.1333    0.0000 C   0  0  0  0  0  0  0  0  0  0  0  0
    2.2792   -2.5542    0.0000 C   0  0  0  0  0  0  0  0  0  0  0  0
    1.8708   -1.8458    0.0000 C   0  0  0  0  0  0  0  0  0  0  0  0
    4.3417   -0.4125    0.0000 C   0  0  0  0  0  0  0  0  0  0  0  0
    3.1042   -3.9833    0.0000 C   0  0  0  0  0  0  0  0  0  0  0  0
    4.3417   -3.2708    0.0000 C   0  0  0  0  0  0  0  0  0  0  0  0
    3.1000    0.3000    0.0000 C   0  0  0  0  0  0  0  0  0  0  0  0
  2  1  2  0
  3  1  1  0
  4  1  1  0
  5  2  1  0
  6  3  1  0
  7  3  2  0
  8  2  1  0
  9  8  2  0
 10  6  1  0
 11  5  1  0
 12  5  1  0
 13  6  1  0
  9  7  1  0
M  END
>  <ID>  (201) 


>  <MOLENAME>  (201) 
PROPOFOL

>  <therap>  (201) 
anesthetic

>  <ref>  (201) 
Br J Anesthes 52:731 (1980); 56:617 (1984)

>  <cas#>  (201) 
2078-54-8

>  <source>  (201) 
synthetic; ICI-35868

>  <status>  (201) 
USAN, INN, BAN

>  <tradename>  (201) 
DIPRIVAN

>  <SMILES>  (201) 
CC(C)c1c(O)c(C(C)C)ccc1

>  <standardized_failed>  (201) 
False

$$$$

     RDKit          2D

 53 55  0  0  0  0  0  0  0  0999 V2000
    3.3542   -0.7167    0.0000 C   0  0  0  0  0  0  0  0  0  0  0  0
    5.8000   -2.9042    0.0000 C   0  0  0  0  0  0  0  0  0  0  0  0
    3.3417   -3.7917    0.0000 C   0  0  0  0  0  0  0  0  0  0  0  0
    2.0250   -3.7917    0.0000 C   0  0  0  0  0  0  0  0  0  0  0  0
    2.6792   -0.3667    0.0000 C   0  0  0  0  0  0  0  0  0  0  0  0
    2.6667   -4.1792    0.0000 C   0  0  0  0  0  0  0  0  0  0  0  0
    6.3125   -2.2625    0.0000 C   0  0  0  0  0  0  0  0  0  0  0  0
    3.7292   -0.0542    0.0000 O   0  0  0  0  0  0  0  0  0  0  0  0
    3.3417   -3.0292    0.0000 C   0  0  0  0  0  0  0  0  0  0  0  0
    2.0250   -0.7417    0.0000 C   0  0  0  0  0  0  0  0  0  0  0  0
    4.0000   -2.6542    0.0000 C   0  0  0  0  0  0  0  0  0  0  0  0
    2.0250   -3.0292    0.0000 O   0  0  0  0  0  0  0  0  0  0  0  0
    4.9750   -2.7792    0.0000 O   0  0  0  0  0  0  0  0  0  0  0  0
   10.0375   -1.1167    0.0000 P   0  0  0  0  0  0  0  0  0  0  0  0
    7.1292   -2.3875    0.0000 C   0  0  0  0  0  0  0  0  0  0  0  0
    2.0250   -1.5167    0.0000 C   0  0  0  0  0  0  0  0  0  0  0  0
    4.0542   -5.0375    0.0000 C   0  0  0  0  0  0  0  0  0  0  0  0
    4.1167   -0.7167    0.0000 C   0  0  0  0  0  0  0  0  0  0  0  0
    1.3667   -1.8917    0.0000 C   0  0  0  0  0  0  0  0  0  0  0  0
    6.1000   -3.6667    0.0000 O   0  0  0  0  0  0  0  0  0  0  0  0
    4.7667   -4.6250    0.0000 O   0  0  0  0  0  0  0  0  0  0  0  0
    4.0542   -5.8625    0.0000 C   0  0  0  0  0  0  0  0  0  0  0  0
    1.3667   -2.6542    0.0000 C   0  0  0  0  0  0  0  0  0  0  0  0
    3.3417   -1.5167    0.0000 C   0  0  0  0  0  0  0  0  0  0  0  0
    5.4875   -5.8625    0.0000 C   0  0  0  0  0  0  0  0  0  0  0  0
    4.7667   -6.2750    0.0000 C   0  0  0  0  0  0  0  0  0  0  0  0
    3.3375   -4.6167    0.0000 O   0  0  0  0  0  0  0  0  0  0  0  0
    5.4875   -5.0375    0.0000 C   0  0  0  0  0  0  0  0  0  0  0  0
    4.0000   -1.8917    0.0000 C   0  0  0  0  0  0  0  0  0  0  0  0
    7.4292   -3.1542    0.0000 C   0  0  0  0  0  0  0  0  0  0  0  0
    7.6500   -1.7417    0.0000 N   0  0  0  0  0  0  0  0  0  0  0  0
    1.3667   -4.1792    0.0000 O   0  0  0  0  0  0  0  0  0  0  0  0
   10.0375   -1.9417    0.0000 O   0  0  0  0  0  0  0  0  0  0  0  0
    6.9167   -3.7917    0.0000 C   0  0  0  0  0  0  0  0  0  0  0  0
    2.7042    0.3208    0.0000 O   0  0  0  0  0  0  0  0  0  0  0  0
    6.0125   -1.4917    0.0000 O   0  0  0  0  0  0  0  0  0  0  0  0
   10.8625   -1.1167    0.0000 O   0  0  0  0  0  0  0  0  0  0  0  0
   10.0375   -0.2917    0.0000 O   0  0  0  0  0  0  0  0  0  0  0  0
    9.2125   -1.1167    0.0000 O   0  0  0  0  0  0  0  0  0  0  0  0
    2.7292   -1.8292    0.0000 O   0  0  0  0  0  0  0  0  0  0  0  0
    6.2042   -6.2792    0.0000 O   0  0  0  0  0  0  0  0  0  0  0  0
    4.7667   -7.1000    0.0000 O   0  0  0  0  0  0  0  0  0  0  0  0
    2.6667   -4.9042    0.0000 C   0  0  0  0  0  0  0  0  0  0  0  0
    2.6792   -2.6542    0.0000 C   0  0  0  0  0  0  0  0  0  0  0  0
    1.3625   -0.3667    0.0000 C   0  0  0  0  0  0  0  0  0  0  0  0
    0.7292   -1.4542    0.0000 C   0  0  0  0  0  0  0  0  0  0  0  0
    0.5792   -3.1292    0.0000 C   0  0  0  0  0  0  0  0  0  0  0  0
    6.2042   -4.6250    0.0000 C   0  0  0  0  0  0  0  0  0  0  0  0
    4.7000   -1.3792    0.0000 C   0  0  0  0  0  0  0  0  0  0  0  0
    7.3500   -0.9750    0.0000 C   0  0  0  0  0  0  0  0  0  0  0  0
    8.4667   -1.8667    0.0000 C   0  0  0  0  0  0  0  0  0  0  0  0
    7.2167   -4.5667    0.0000 C   0  0  0  0  0  0  0  0  0  0  0  0
    4.0542   -7.5125    0.0000 C   0  0  0  0  0  0  0  0  0  0  0  0
 13  2  1  0
  3  9  1  0
  4  6  1  0
  5  1  1  0
  6  3  1  0
  7  2  1  0
  1  8  1  0
  9 11  1  0
 10  5  1  0
 11 29  1  0
 12 23  1  0
 11 13  1  6
 15  7  1  0
 16 10  1  0
 17 27  1  6
  1 18  1  1
 19 16  1  0
 20  2  1  0
 21 17  1  0
 22 17  1  0
 23 19  1  0
 24  1  1  0
 25 26  1  0
 26 22  1  0
  3 27  1  6
 28 21  1  0
 29 24  1  0
 30 34  1  0
 15 31  1  1
 32  4  2  0
 33 14  2  0
 34 20  1  0
 35  5  2  0
  7 36  1  6
 37 14  1  0
 38 14  1  0
 39 14  1  0
 16 40  1  1
 25 41  1  6
 26 42  1  1
  6 43  1  1
  9 44  1  6
 10 45  1  1
 19 46  1  6
 23 47  1  6
 28 48  1  1
 29 49  1  6
 50 31  1  0
 51 31  1  0
 34 52  1  1
 53 42  1  0
  8 18  1  0
 12  4  1  0
 15 30  1  0
 28 25  1  0
M  END
>  <ID>  (202) 


>  <MOLENAME>  (202) 
OLEANDOMYCIN PHOSPHATE

>  <therap>  (202) 
antibacterial

>  <ref>  (202) 
Antibiot. Chemother. (1971), 17, 52-66; Antibiot. Chemother. (1957), 7, 399-409; Antibiot. Annu. (1956), 600-3

>  <cas#>  (202) 
3922-90-5 (base)

>  <source>  (202) 
Streptomyces antibioticus

>  <status>  (202) 
NF-XIII, INN, BAN, JAN

>  <tradename>  (202) 
MATROMYCIN

>  <SMILES>  (202) 
CO[C@H]1C[C@H](O[C@@H]2[C@@H](C)C(=O)O[C@H](C)[C@H](C)[C@H](O)[C@@H](C)C(=O)[C@@]3(CO3)C[C@H](C)[C@H](OC3O[C@H](C)C[C@H](N(C)C)[C@H]3O)[C@H]2C)O[C@@H](C)[C@@H]1O

>  <standardized_failed>  (202) 
False

$$$$

     RDKit          2D

 21 23  0  0  0  0  0  0  0  0999 V2000
    5.6542   -3.1125    0.0000 N   0  0  0  0  0  0  0  0  0  0  0  0
    4.9500   -3.4375    0.0000 C   0  0  0  0  0  0  0  0  0  0  0  0
    6.3292   -3.4625    0.0000 C   0  0  0  0  0  0  0  0  0  0  0  0
    4.8125   -4.1542    0.0000 C   0  0  0  0  0  0  0  0  0  0  0  0
    6.4500   -4.1792    0.0000 C   0  0  0  0  0  0  0  0  0  0  0  0
    5.2542   -4.6250    0.0000 C   0  0  0  0  0  0  0  0  0  0  0  0
    5.7250   -2.3375    0.0000 C   0  0  0  0  0  0  0  0  0  0  0  0
    4.3875   -2.2125    0.0000 N   0  0  0  0  0  0  0  0  0  0  0  0
    6.0042   -4.6250    0.0000 C   0  0  0  0  0  0  0  0  0  0  0  0
    4.3125   -2.9875    0.0000 C   0  0  0  0  0  0  0  0  0  0  0  0
    5.0875   -1.8875    0.0000 C   0  0  0  0  0  0  0  0  0  0  0  0
    7.1667   -1.9667    0.0000 Cl  0  0  0  0  0  0  0  0  0  0  0  0
    6.9000   -3.0000    0.0000 C   0  0  0  0  0  0  0  0  0  0  0  0
    4.1792   -4.3042    0.0000 C   0  0  0  0  0  0  0  0  0  0  0  0
    3.7750   -1.7792    0.0000 C   0  0  0  0  0  0  0  0  0  0  0  0
    7.1375   -4.4375    0.0000 C   0  0  0  0  0  0  0  0  0  0  0  0
    5.0750   -5.2500    0.0000 C   0  0  0  0  0  0  0  0  0  0  0  0
    7.5875   -3.2542    0.0000 C   0  0  0  0  0  0  0  0  0  0  0  0
    4.0000   -4.9250    0.0000 C   0  0  0  0  0  0  0  0  0  0  0  0
    4.4417   -5.4000    0.0000 C   0  0  0  0  0  0  0  0  0  0  0  0
    7.7000   -3.9750    0.0000 C   0  0  0  0  0  0  0  0  0  0  0  0
  2  1  1  0
  3  1  1  0
  4  2  1  0
  5  3  2  0
  6  4  2  0
  7  1  1  0
  8 11  1  0
  9  5  1  0
 10  2  1  0
 11  7  1  0
 13  3  1  0
 14  4  1  0
 15  8  1  0
 16  5  1  0
 17  6  1  0
 18 13  2  0
 19 14  2  0
 20 19  1  0
 21 18  1  0
 10  8  1  0
  9  6  1  0
 21 16  2  0
 17 20  2  0
M  END
>  <ID>  (203) 


>  <MOLENAME>  (203) 
MIANSERIN HYDROCHLORIDE

>  <therap>  (203) 
5HT antagonist

>  <ref>  (203) 
Br. J. Clin. Pharmacol. (1978), 5 Suppl 113S-17S; Curr. Ther. Res. (1975), 18(6), 849-54; Br. J. Pharmacol. (1974), 52(3), 431P

>  <cas#>  (203) 
21535-47-7, 24219-97-4 [mianserin]

>  <source>  (203) 
synthetic; ORG-GB-94

>  <status>  (203) 
USAN, INN, BAN, JAN

>  <tradename>  (203) 
ATHYMIL

>  <SMILES>  (203) 
CN1CCN2c3c(cccc3)Cc3c(cccc3)C2C1

>  <standardized_failed>  (203) 
False

$$$$

     RDKit          2D

 32 34  0  0  0  0  0  0  0  0999 V2000
    4.2917   -5.7042    0.0000 C   0  0  0  0  0  0  0  0  0  0  0  0
    6.4292   -2.0125    0.0000 N   0  0  0  0  0  0  0  0  0  0  0  0
    4.3917   -6.5250    0.0000 N   0  0  0  0  0  0  0  0  0  0  0  0
    5.2000   -6.6875    0.0000 N   0  0  0  0  0  0  0  0  0  0  0  0
    5.0500   -5.3625    0.0000 N   0  0  0  0  0  0  0  0  0  0  0  0
    5.6042   -5.9750    0.0000 N   0  0  0  0  0  0  0  0  0  0  0  0
    3.5792   -5.3000    0.0000 C   0  0  0  0  0  0  0  0  0  0  0  0
    7.1417   -1.6000    0.0000 C   0  0  0  0  0  0  0  0  0  0  0  0
    5.7167   -1.6000    0.0000 C   0  0  0  0  0  0  0  0  0  0  0  0
    3.5750   -4.4792    0.0000 C   0  0  0  0  0  0  0  0  0  0  0  0
    7.8542   -2.0042    0.0000 C   0  0  0  0  0  0  0  0  0  0  0  0
    6.4292   -2.8375    0.0000 C   0  0  0  0  0  0  0  0  0  0  0  0
    4.2875   -4.0625    0.0000 C   0  0  0  0  0  0  0  0  0  0  0  0
    5.7167   -0.7750    0.0000 O   0  0  0  0  0  0  0  0  0  0  0  0
    8.5667   -1.5917    0.0000 O   0  0  0  0  0  0  0  0  0  0  0  0
    4.2917   -3.2375    0.0000 C   0  0  0  0  0  0  0  0  0  0  0  0
    5.0042   -4.4750    0.0000 C   0  0  0  0  0  0  0  0  0  0  0  0
    5.7167   -3.2500    0.0000 C   0  0  0  0  0  0  0  0  0  0  0  0
    7.1417   -0.7750    0.0000 C   0  0  0  0  0  0  0  0  0  0  0  0
    7.8542   -2.8292    0.0000 O   0  0  0  0  0  0  0  0  0  0  0  0
    5.7167   -4.0625    0.0000 C   0  0  0  0  0  0  0  0  0  0  0  0
    5.0042   -2.8250    0.0000 C   0  0  0  0  0  0  0  0  0  0  0  0
    2.8667   -5.7125    0.0000 C   0  0  0  0  0  0  0  0  0  0  0  0
    5.0042   -2.0125    0.0000 C   0  0  0  0  0  0  0  0  0  0  0  0
    2.8625   -4.0625    0.0000 C   0  0  0  0  0  0  0  0  0  0  0  0
    6.4292   -0.3625    0.0000 C   0  0  0  0  0  0  0  0  0  0  0  0
    7.8542   -0.3542    0.0000 C   0  0  0  0  0  0  0  0  0  0  0  0
    4.2917   -1.6000    0.0000 C   0  0  0  0  0  0  0  0  0  0  0  0
    3.5792   -2.0125    0.0000 C   0  0  0  0  0  0  0  0  0  0  0  0
    2.1500   -5.3000    0.0000 C   0  0  0  0  0  0  0  0  0  0  0  0
    2.1500   -4.4750    0.0000 C   0  0  0  0  0  0  0  0  0  0  0  0
    2.8667   -1.6000    0.0000 C   0  0  0  0  0  0  0  0  0  0  0  0
  2 12  1  0
  3  1  1  0
  4  3  2  0
  5  1  2  0
  6  5  1  0
  7  1  1  0
  8  2  1  0
  9  2  1  0
 10  7  1  0
 11  8  1  0
 12 18  1  0
 13 10  1  0
 14  9  2  0
 15 11  2  0
 16 13  2  0
 17 13  1  0
 18 21  1  0
  8 19  1  1
 20 11  1  0
 21 17  2  0
 22 16  1  0
 23  7  2  0
 24  9  1  0
 25 10  2  0
 26 19  1  0
 27 19  1  0
 28 24  1  0
 29 28  1  0
 30 23  1  0
 31 30  2  0
 32 29  1  0
  4  6  1  0
 25 31  1  0
 18 22  2  0
M  END
>  <ID>  (204) 


>  <MOLENAME>  (204) 
VALSARTAN

>  <therap>  (204) 
Angiotensin II inhibitor, antihypertensive

>  <ref>  (204) 
Br J Pharmacol 110:761 (1993); J Clin Hypertens 3:283 (2001); Expert Opin Pharmacother 5:181 (2004)

>  <cas#>  (204) 
137862-53-4

>  <source>  (204) 
synthetic; CGP-48933

>  <status>  (204) 
USAN, INN, BAN

>  <tradename>  (204) 
DIOVAN

>  <SMILES>  (204) 
CCCCC(=O)N(Cc1ccc(-c2ccccc2-c2n[nH]nn2)cc1)[C@H](C(=O)O)C(C)C

>  <standardized_failed>  (204) 
False

$$$$

     RDKit          2D

 19 20  0  0  0  0  0  0  0  0999 V2000
    2.9417   -0.3792    0.0000 C   0  0  0  0  0  0  0  0  0  0  0  0
    2.2292    0.0375    0.0000 C   0  0  0  0  0  0  0  0  0  0  0  0
    3.6500   -2.4417    0.0000 C   0  0  0  0  0  0  0  0  0  0  0  0
    2.9417   -1.2042    0.0000 O   0  0  0  0  0  0  0  0  0  0  0  0
    3.6542   -1.6167    0.0000 C   0  0  0  0  0  0  0  0  0  0  0  0
    2.9292   -2.8542    0.0000 C   0  0  0  0  0  0  0  0  0  0  0  0
    1.5167   -0.3750    0.0000 C   0  0  0  0  0  0  0  0  0  0  0  0
    3.6542    0.0333    0.0000 O   0  0  0  0  0  0  0  0  0  0  0  0
    2.2167   -2.4375    0.0000 O   0  0  0  0  0  0  0  0  0  0  0  0
    2.9250   -3.6792    0.0000 O   0  0  0  0  0  0  0  0  0  0  0  0
    1.5167   -1.2000    0.0000 O   0  0  0  0  0  0  0  0  0  0  0  0
    4.3542   -2.8542    0.0000 C   0  0  0  0  0  0  0  0  0  0  0  0
    2.2292    0.8583    0.0000 C   0  0  0  0  0  0  0  0  0  0  0  0
    4.3667   -1.2042    0.0000 C   0  0  0  0  0  0  0  0  0  0  0  0
    0.8042    0.0375    0.0000 C   0  0  0  0  0  0  0  0  0  0  0  0
    5.0750   -2.4500    0.0000 C   0  0  0  0  0  0  0  0  0  0  0  0
    1.5167    1.2708    0.0000 C   0  0  0  0  0  0  0  0  0  0  0  0
    5.0792   -1.6250    0.0000 C   0  0  0  0  0  0  0  0  0  0  0  0
    0.8042    0.8625    0.0000 C   0  0  0  0  0  0  0  0  0  0  0  0
  2  1  1  0
  3  5  2  0
  4  1  1  0
  5  4  1  0
  6  3  1  0
  7  2  2  0
  8  1  2  0
  9  6  2  0
 10  6  1  0
 11  7  1  0
 12  3  1  0
 13  2  1  0
 14  5  1  0
 15  7  1  0
 16 18  1  0
 17 13  2  0
 18 14  2  0
 19 17  1  0
 19 15  2  0
 16 12  2  0
M  END
>  <ID>  (205) 


>  <MOLENAME>  (205) 
SALSALATE

>  <therap>  (205) 
analgesic

>  <ref>  (205) 
J Pharm Sci 73:1657 (1984); Clin Ther 3:80 (1980); 6:388 (1984); Curr Ther Res 42:720 (1987)

>  <cas#>  (205) 
552-94-3

>  <source>  (205) 
synthetic; NSC-49171

>  <status>  (205) 
USP, INN, BAN

>  <tradename>  (205) 
DISALSID

>  <SMILES>  (205) 
O=C(Oc1c(C(=O)O)cccc1)c1c(O)cccc1

>  <standardized_failed>  (205) 
False

$$$$

     RDKit          2D

 26 29  0  0  0  0  0  0  0  0999 V2000
    7.3125   -5.8042    0.0000 C   0  0  0  0  0  0  0  0  0  0  0  0
    5.1667   -7.0500    0.0000 C   0  0  0  0  0  0  0  0  0  0  0  0
    8.0917   -5.5542    0.0000 C   0  0  0  0  0  0  0  0  0  0  0  0
    6.5917   -7.0500    0.0000 C   0  0  0  0  0  0  0  0  0  0  0  0
    7.3125   -6.6375    0.0000 C   0  0  0  0  0  0  0  0  0  0  0  0
    5.8792   -6.6375    0.0000 C   0  0  0  0  0  0  0  0  0  0  0  0
    5.1667   -7.8750    0.0000 C   0  0  0  0  0  0  0  0  0  0  0  0
    6.5917   -5.3917    0.0000 C   0  0  0  0  0  0  0  0  0  0  0  0
    5.8792   -5.8042    0.0000 C   0  0  0  0  0  0  0  0  0  0  0  0
    4.4542   -8.2875    0.0000 C   0  0  0  0  0  0  0  0  0  0  0  0
    8.4292   -4.8000    0.0000 C   0  0  0  0  0  0  0  0  0  0  0  0
    8.5792   -6.2167    0.0000 C   0  0  0  0  0  0  0  0  0  0  0  0
    8.0917   -6.8917    0.0000 C   0  0  0  0  0  0  0  0  0  0  0  0
    6.5917   -7.8750    0.0000 C   0  0  0  0  0  0  0  0  0  0  0  0
    4.4542   -6.6375    0.0000 C   0  0  0  0  0  0  0  0  0  0  0  0
    5.8792   -8.2875    0.0000 C   0  0  0  0  0  0  0  0  0  0  0  0
    3.7375   -7.8750    0.0000 C   0  0  0  0  0  0  0  0  0  0  0  0
    7.9417   -4.1292    0.0000 O   0  0  0  0  0  0  0  0  0  0  0  0
    3.0167   -8.2917    0.0000 O   0  0  0  0  0  0  0  0  0  0  0  0
    8.9042   -5.6792    0.0000 O   0  0  0  0  0  0  0  0  0  0  0  0
    7.3042   -4.9792    0.0000 C   0  0  0  0  0  0  0  0  0  0  0  0
    3.7375   -7.0500    0.0000 C   0  0  0  0  0  0  0  0  0  0  0  0
    5.1542   -5.3792    0.0000 O   0  0  0  0  0  0  0  0  0  0  0  0
    5.1667   -6.2167    0.0000 C   0  0  0  0  0  0  0  0  0  0  0  0
    9.2542   -4.7125    0.0000 C   0  0  0  0  0  0  0  0  0  0  0  0
    9.5917   -3.9542    0.0000 O   0  0  0  0  0  0  0  0  0  0  0  0
  2  6  1  0
  3  1  1  0
  4  5  1  0
  5  1  1  0
  6  9  1  0
  7  2  1  0
  8  1  1  0
  9  8  1  0
 10  7  2  0
  3 11  1  0
 12  3  1  0
 13  5  1  0
 14  4  1  0
 15  2  1  0
 16 14  1  0
 17 22  1  0
 18 11  2  0
 19 17  2  0
  3 20  1  6
  1 21  1  1
 22 15  1  0
  9 23  1  1
  2 24  1  1
 25 11  1  0
 26 25  1  0
 12 13  1  0
  6  4  1  0
 16  7  1  0
 10 17  1  0
M  END
>  <ID>  (206) 


>  <MOLENAME>  (206) 
HYDROCORTISONE

>  <therap>  (206) 
glucocorticoid, antiinflammatory

>  <ref>  (206) 
J. Clin. Pharmacol. J. New Drugs (1970), 10(1), 3-11; Prog. Drug Res. (1963), 511-153; J. Allergy (1956), 27(5), 395-7

>  <cas#>  (206) 
50-23-7

>  <source>  (206) 
adrenal glands

>  <status>  (206) 
USP, INN, BAN, JAN

>  <tradename>  (206) 
HYDROCORTONE

>  <SMILES>  (206) 
C[C@]12C[C@H](O)C3C(CCC4=CC(=O)CC[C@@]43C)C1CC[C@]2(O)C(=O)CO

>  <standardized_failed>  (206) 
False

$$$$

     RDKit          2D

 57 62  0  0  0  0  0  0  0  0999 V2000
    7.5625   -4.6000    0.0000 C   0  0  0  0  0  0  0  0  0  0  0  0
    7.5542   -3.7750    0.0000 C   0  0  0  0  0  0  0  0  0  0  0  0
    8.1792   -5.1500    0.0000 N   0  0  0  0  0  0  0  0  0  0  0  0
    7.8417   -5.9042    0.0000 C   0  0  0  0  0  0  0  0  0  0  0  0
    7.0250   -5.8250    0.0000 N   0  0  0  0  0  0  0  0  0  0  0  0
    6.8500   -5.0167    0.0000 C   0  0  0  0  0  0  0  0  0  0  0  0
    5.4167   -5.0167    0.0000 C   0  0  0  0  0  0  0  0  0  0  0  0
    4.7000   -4.6042    0.0000 C   0  0  0  0  0  0  0  0  0  0  0  0
    6.1292   -3.7792    0.0000 C   0  0  0  0  0  0  0  0  0  0  0  0
    6.1292   -4.6042    0.0000 C   0  0  0  0  0  0  0  0  0  0  0  0
    4.4250   -5.9167    0.0000 C   0  0  0  0  0  0  0  0  0  0  0  0
    8.2667   -3.3625    0.0000 N   0  0  0  0  0  0  0  0  0  0  0  0
    4.0875   -5.1667    0.0000 O   0  0  0  0  0  0  0  0  0  0  0  0
    6.8417   -3.3625    0.0000 C   0  0  0  0  0  0  0  0  0  0  0  0
    5.4167   -3.3667    0.0000 C   0  0  0  0  0  0  0  0  0  0  0  0
    5.2500   -5.8292    0.0000 C   0  0  0  0  0  0  0  0  0  0  0  0
    4.7042   -3.7750    0.0000 C   0  0  0  0  0  0  0  0  0  0  0  0
    3.9875   -2.5375    0.0000 C   0  0  0  0  0  0  0  0  0  0  0  0
    8.2667   -2.5375    0.0000 C   0  0  0  0  0  0  0  0  0  0  0  0
    4.7042   -2.1250    0.0000 C   0  0  0  0  0  0  0  0  0  0  0  0
    5.4167   -0.8875    0.0000 C   0  0  0  0  0  0  0  0  0  0  0  0
    4.7042   -1.3000    0.0000 C   0  0  0  0  0  0  0  0  0  0  0  0
    8.9917   -5.0667    0.0000 C   0  0  0  0  0  0  0  0  0  0  0  0
    3.9875   -3.3625    0.0000 C   0  0  0  0  0  0  0  0  0  0  0  0
    8.3250   -6.5667    0.0000 C   0  0  0  0  0  0  0  0  0  0  0  0
    6.1292   -1.3000    0.0000 C   0  0  0  0  0  0  0  0  0  0  0  0
    8.9792   -2.1292    0.0000 C   0  0  0  0  0  0  0  0  0  0  0  0
    2.5500   -5.9042    0.0000 O   0  0  0  0  0  0  0  0  0  0  0  0
    3.2750   -2.1250    0.0000 O   0  0  0  0  0  0  0  0  0  0  0  0
    9.4792   -5.7250    0.0000 C   0  0  0  0  0  0  0  0  0  0  0  0
    9.1417   -6.4792    0.0000 C   0  0  0  0  0  0  0  0  0  0  0  0
    2.5542   -5.0125    0.0000 C   0  0  0  0  0  0  0  0  0  0  0  0
    2.5542   -2.5375    0.0000 C   0  0  0  0  0  0  0  0  0  0  0  0
    3.2750   -4.6000    0.0000 C   0  0  0  0  0  0  0  0  0  0  0  0
    3.2750   -3.7750    0.0000 C   0  0  0  0  0  0  0  0  0  0  0  0
    8.2667   -0.8875    0.0000 C   0  0  0  0  0  0  0  0  0  0  0  0
    5.8042   -6.4417    0.0000 O   0  0  0  0  0  0  0  0  0  0  0  0
    8.9792   -1.3042    0.0000 C   0  0  0  0  0  0  0  0  0  0  0  0
    7.5500   -2.1250    0.0000 O   0  0  0  0  0  0  0  0  0  0  0  0
    6.8417   -0.8875    0.0000 C   0  0  0  0  0  0  0  0  0  0  0  0
    7.5542   -1.3000    0.0000 C   0  0  0  0  0  0  0  0  0  0  0  0
    1.8417   -2.1250    0.0000 O   0  0  0  0  0  0  0  0  0  0  0  0
    6.8542   -2.6875    0.0000 O   0  0  0  0  0  0  0  0  0  0  0  0
    5.4167   -2.7500    0.0000 O   0  0  0  0  0  0  0  0  0  0  0  0
    3.9917   -0.8875    0.0000 O   0  0  0  0  0  0  0  0  0  0  0  0
    6.1292   -2.1250    0.0000 O   0  0  0  0  0  0  0  0  0  0  0  0
    4.6375   -6.7167    0.0000 C   0  0  0  0  0  0  0  0  0  0  0  0
    3.8625   -3.7792    0.0000 C   0  0  0  0  0  0  0  0  0  0  0  0
    5.3917   -1.9375    0.0000 C   0  0  0  0  0  0  0  0  0  0  0  0
    5.4167   -0.0625    0.0000 C   0  0  0  0  0  0  0  0  0  0  0  0
    2.4042   -3.7375    0.0000 O   0  0  0  0  0  0  0  0  0  0  0  0
    4.6750   -3.2167    0.0000 C   0  0  0  0  0  0  0  0  0  0  0  0
    9.6917   -2.5417    0.0000 C   0  0  0  0  0  0  0  0  0  0  0  0
    9.6292   -7.1500    0.0000 C   0  0  0  0  0  0  0  0  0  0  0  0
    2.5542   -3.3625    0.0000 C   0  0  0  0  0  0  0  0  0  0  0  0
    6.8417   -0.0625    0.0000 C   0  0  0  0  0  0  0  0  0  0  0  0
    1.9542   -4.3417    0.0000 C   0  0  0  0  0  0  0  0  0  0  0  0
  2  1  1  0
  3  1  1  0
  4  3  1  0
  5  6  1  0
  6  1  2  0
  7 10  2  0
  8  7  1  0
  9 10  1  0
 10  6  1  0
 11 16  1  0
 12  2  1  0
 13  8  1  0
 14  2  2  0
 15  9  2  0
 16  7  1  0
 17 15  1  0
 18 24  1  0
 19 12  1  0
 20 18  1  0
 21 26  1  0
 22 21  1  0
 23  3  1  0
 24 35  1  0
 25  4  1  0
 26 40  1  0
 27 19  1  0
 11 28  1  0
 18 29  1  1
 30 23  2  0
 31 30  1  0
 32 28  1  0
 33 29  1  0
 34 32  2  0
 35 34  1  0
 36 38  1  0
 37 16  2  0
 38 27  2  0
 39 19  2  0
 40 41  1  0
 41 36  2  0
 42 33  2  0
 43 14  1  0
 44 15  1  0
 45 22  1  0
 26 46  1  6
 11 47  1  6
 48 17  1  0
 20 49  1  1
 21 50  1  6
 35 51  1  6
 24 52  1  6
 53 27  1  0
 54 31  1  0
 55 33  1  0
 40 56  1  1
 57 51  1  0
  4  5  2  0
  9 14  1  0
 31 25  2  0
  8 17  2  0
 11 13  1  0
 20 22  1  0
M  END
>  <ID>  (207) 


>  <MOLENAME>  (207) 
RIFAXIMIN

>  <therap>  (207) 
antibacterial, RNA synthesis inhibitor

>  <ref>  (207) 
Drugs 49:467 (1995)

>  <cas#>  (207) 
80621-81-4

>  <source>  (207) 
semisynthetic

>  <status>  (207) 
USAN, INN

>  <tradename>  (207) 
XIFAXAN

>  <SMILES>  (207) 
CO[C@H]1/C=C/O[C@@]2(C)Oc3c(C)c(O)c4c(O)c(NC(=O)/C(C)=C\C=C\[C@H](C)[C@H](O)[C@@H](C)C(O)[C@@H](C)[C@H](OC(C)=O)[C@@H]1C)c1c(nc5cc(C)ccn51)c4c3C2=O

>  <standardized_failed>  (207) 
False

$$$$

     RDKit          2D

 14 13  0  0  0  0  0  0  0  0999 V2000
    3.3958   -1.4958    0.0000 C   0  0  0  0  0  0  0  0  0  0  0  0
    2.6792   -1.0833    0.0000 C   0  0  0  0  0  0  0  0  0  0  0  0
    1.9667   -1.5000    0.0000 C   0  0  0  0  0  0  0  0  0  0  0  0
    4.1042   -1.0792    0.0000 C   0  0  0  0  0  0  0  0  0  0  0  0
    1.9667   -2.3250    0.0000 C   0  0  0  0  0  0  0  0  0  0  0  0
    3.3958   -2.3250    0.0000 C   0  0  0  0  0  0  0  0  0  0  0  0
    4.1042   -0.2542    0.0000 O   0  0  0  0  0  0  0  0  0  0  0  0
    2.6792   -2.7375    0.0000 C   0  0  0  0  0  0  0  0  0  0  0  0
    1.2542   -1.0875    0.0000 O   0  0  0  0  0  0  0  0  0  0  0  0
    5.5292   -1.0792    0.0000 N   0  0  0  0  0  0  0  0  0  0  0  0
    1.2500   -2.7375    0.0000 O   0  0  0  0  0  0  0  0  0  0  0  0
    5.0917   -2.6167    0.0000 Cl  0  0  0  0  0  0  0  0  0  0  0  0
    4.8167   -1.4917    0.0000 C   0  0  0  0  0  0  0  0  0  0  0  0
    6.2417   -1.4875    0.0000 C   0  0  0  0  0  0  0  0  0  0  0  0
  2  1  2  0
  3  2  1  0
  4  1  1  0
  5  3  2  0
  6  1  1  0
  7  4  2  0
  8  6  2  0
  9  3  1  0
 10 13  1  0
 11  5  1  0
 13  4  1  0
 14 10  1  0
  8  5  1  0
M  END
>  <ID>  (208) 


>  <MOLENAME>  (208) 
ADRENOLONE HYDROCHLORIDE

>  <therap>  (208) 
adrenergic (opthalmic)

>  <ref>  (208) 
Int J Pharmaceut 1:189 (1978) 

>  <cas#>  (208) 
62-13-5, 99-45-6 (base)

>  <source>  (208) 
synthetic

>  <status>  (208) 
USAN, INN

>  <tradename>  (208) 
STRYPHNASAL

>  <SMILES>  (208) 
CNCC(=O)c1cc(O)c(O)cc1

>  <standardized_failed>  (208) 
False

$$$$

     RDKit          2D

 18 20  0  0  0  0  0  0  0  0999 V2000
    3.0667   -3.5167    0.0000 C   0  0  0  0  0  0  0  0  0  0  0  0
    2.5125   -2.3083    0.0000 N   0  0  0  0  0  0  0  0  0  0  0  0
    3.6708   -2.9625    0.0000 N   0  0  0  0  0  0  0  0  0  0  0  0
    2.3500   -3.1125    0.0000 C   0  0  0  0  0  0  0  0  0  0  0  0
    3.0708   -4.3500    0.0000 C   0  0  0  0  0  0  0  0  0  0  0  0
    2.3583   -4.7667    0.0000 N   0  0  0  0  0  0  0  0  0  0  0  0
    3.3292   -2.2167    0.0000 C   0  0  0  0  0  0  0  0  0  0  0  0
    1.6417   -3.5292    0.0000 C   0  0  0  0  0  0  0  0  0  0  0  0
    1.6417   -4.3542    0.0000 C   0  0  0  0  0  0  0  0  0  0  0  0
    1.9583   -1.7000    0.0000 C   0  0  0  0  0  0  0  0  0  0  0  0
    3.7875   -4.7583    0.0000 N   0  0  0  0  0  0  0  0  0  0  0  0
    0.9250   -3.1167    0.0000 C   0  0  0  0  0  0  0  0  0  0  0  0
    0.9250   -4.7708    0.0000 C   0  0  0  0  0  0  0  0  0  0  0  0
    2.2042   -0.9125    0.0000 C   0  0  0  0  0  0  0  0  0  0  0  0
    3.0125   -0.7333    0.0000 C   0  0  0  0  0  0  0  0  0  0  0  0
    1.6458   -0.3042    0.0000 C   0  0  0  0  0  0  0  0  0  0  0  0
    0.2125   -3.5292    0.0000 C   0  0  0  0  0  0  0  0  0  0  0  0
    0.2125   -4.3583    0.0000 C   0  0  0  0  0  0  0  0  0  0  0  0
  2  4  1  0
  3  1  1  0
  4  1  2  0
  5  1  1  0
  6  5  2  0
  7  3  2  0
  8  4  1  0
  9  6  1  0
 10  2  1  0
 11  5  1  0
 12  8  2  0
 13  9  2  0
 14 10  1  0
 15 14  1  0
 16 14  1  0
 17 12  1  0
 18 13  1  0
  2  7  1  0
  9  8  1  0
 18 17  2  0
M  END
>  <ID>  (209) 


>  <MOLENAME>  (209) 
IMIQUIMOD

>  <therap>  (209) 
immunomodulator

>  <ref>  (209) 
Cancer Res 53:5176 (1993); Arch Dermatol 134:25 (1998); J Am Acad Dermatol 43:S1 (2000)

>  <cas#>  (209) 
99011-02-6

>  <source>  (209) 
synthetic; R-837, S-26308

>  <status>  (209) 
USAN, INN, BAN

>  <tradename>  (209) 
ALDARA

>  <SMILES>  (209) 
CC(C)Cn1cnc2c1c1ccccc1nc2N

>  <standardized_failed>  (209) 
False

$$$$

     RDKit          2D

 43 43  0  0  0  0  0  0  0  0999 V2000
    5.6292   -0.0750    0.0000 C   0  0  0  0  0  0  0  0  0  0  0  0
    7.0500   -0.8917    0.0000 C   0  0  0  0  0  0  0  0  0  0  0  0
    5.6250   -0.8917    0.0000 C   0  0  0  0  0  0  0  0  0  0  0  0
    6.3292    0.3375    0.0000 C   0  0  0  0  0  0  0  0  0  0  0  0
    7.0417   -0.0667    0.0000 C   0  0  0  0  0  0  0  0  0  0  0  0
    6.3375   -1.3042    0.0000 C   0  0  0  0  0  0  0  0  0  0  0  0
    4.9167    0.3333    0.0000 O   0  0  0  0  0  0  0  0  0  0  0  0
   12.7542   -2.5792    0.0000 O   0  0  0  0  0  0  0  0  0  0  0  0
    2.7792   -0.0792    0.0000 O   0  0  0  0  0  0  0  0  0  0  0  0
    0.6417   -1.3167    0.0000 O   0  0  0  0  0  0  0  0  0  0  0  0
    2.0667   -2.1417    0.0000 O   0  0  0  0  0  0  0  0  0  0  0  0
    4.2042   -2.5625    0.0000 O   0  0  0  0  0  0  0  0  0  0  0  0
    6.3417   -2.1542    0.0000 O   0  0  0  0  0  0  0  0  0  0  0  0
    8.4792   -2.5750    0.0000 O   0  0  0  0  0  0  0  0  0  0  0  0
   10.6167   -2.1667    0.0000 O   0  0  0  0  0  0  0  0  0  0  0  0
    0.6417    0.3208    0.0000 O   0  0  0  0  0  0  0  0  0  0  0  0
   12.0417   -2.1667    0.0000 C   0  0  0  0  0  0  0  0  0  0  0  0
    7.7625   -1.3000    0.0000 C   0  0  0  0  0  0  0  0  0  0  0  0
    4.2042   -0.0792    0.0000 C   0  0  0  0  0  0  0  0  0  0  0  0
   11.3292   -2.5792    0.0000 C   0  0  0  0  0  0  0  0  0  0  0  0
    3.4917    0.3333    0.0000 C   0  0  0  0  0  0  0  0  0  0  0  0
    0.6417   -2.1417    0.0000 C   0  0  0  0  0  0  0  0  0  0  0  0
    1.3542   -2.5542    0.0000 C   0  0  0  0  0  0  0  0  0  0  0  0
    1.3542   -0.0875    0.0000 C   0  0  0  0  0  0  0  0  0  0  0  0
    5.6292   -2.5667    0.0000 C   0  0  0  0  0  0  0  0  0  0  0  0
    2.7792   -2.5542    0.0000 C   0  0  0  0  0  0  0  0  0  0  0  0
    7.0542   -2.5667    0.0000 C   0  0  0  0  0  0  0  0  0  0  0  0
    7.7667   -2.1625    0.0000 C   0  0  0  0  0  0  0  0  0  0  0  0
    3.4917   -2.1500    0.0000 C   0  0  0  0  0  0  0  0  0  0  0  0
    9.1917   -2.1667    0.0000 C   0  0  0  0  0  0  0  0  0  0  0  0
    9.9042   -2.5792    0.0000 C   0  0  0  0  0  0  0  0  0  0  0  0
    2.0667    0.3250    0.0000 C   0  0  0  0  0  0  0  0  0  0  0  0
    4.9167   -2.1542    0.0000 C   0  0  0  0  0  0  0  0  0  0  0  0
   -0.0708   -0.0917    0.0000 C   0  0  0  0  0  0  0  0  0  0  0  0
   -0.0708   -0.9125    0.0000 C   0  0  0  0  0  0  0  0  0  0  0  0
    8.4750   -0.8875    0.0000 C   0  0  0  0  0  0  0  0  0  0  0  0
   12.7500   -0.8750    0.0000 C   0  0  0  0  0  0  0  0  0  0  0  0
   12.0375   -1.2875    0.0000 C   0  0  0  0  0  0  0  0  0  0  0  0
    9.9000   -0.8792    0.0000 C   0  0  0  0  0  0  0  0  0  0  0  0
   10.6125   -1.2917    0.0000 C   0  0  0  0  0  0  0  0  0  0  0  0
   11.3250   -0.8792    0.0000 C   0  0  0  0  0  0  0  0  0  0  0  0
    9.1875   -1.2917    0.0000 C   0  0  0  0  0  0  0  0  0  0  0  0
   13.4625   -1.2792    0.0000 C   0  0  0  0  0  0  0  0  0  0  0  0
  2  5  1  0
  3  1  2  0
  4  1  1  0
  5  4  2  0
  6  3  1  0
  7  1  1  0
  8 17  1  0
  9 21  1  0
 10 35  1  0
 11 23  1  0
 12 29  1  0
 13 25  1  0
 14 28  1  0
 15 31  1  0
 16 24  1  0
 17 20  1  0
 18  2  1  0
 19  7  1  0
 20 15  1  0
 21 19  1  0
 22 10  1  0
 23 22  1  0
 24 32  1  0
 25 33  1  0
 26 11  1  0
 27 13  1  0
 28 27  1  0
 29 26  1  0
 30 14  1  0
 31 30  1  0
 32  9  1  0
 33 12  1  0
 34 16  1  0
 35 34  1  0
 36 18  1  0
 37 38  1  0
 38 41  1  0
 39 42  1  0
 40 39  1  0
 41 40  1  0
 42 36  1  0
 43 37  1  0
  2  6  2  0
M  END
>  <ID>  (210) 


>  <MOLENAME>  (210) 
NONOXYNOL-9

>  <therap>  (210) 
spermatocide, contraceptive

>  <ref>  (210) 
J Steroid Biochem Mol Biol 65:143 (1998)

>  <cas#>  (210) 
26027-38-3

>  <source>  (210) 
synthetic

>  <status>  (210) 
USP, INN

>  <tradename>  (210) 
CONCEPTROL

>  <SMILES>  (210) 
CCCCCCCCCc1ccc(OCCOCCOCCOCCOCCOCCOCCOCCOCCO)cc1

>  <standardized_failed>  (210) 
False

$$$$

     RDKit          2D

 31 33  0  0  0  0  0  0  0  0999 V2000
    8.4542   -1.8250    0.0000 C   0  0  0  0  0  0  0  0  0  0  0  0
    7.7417   -1.4125    0.0000 N   0  0  0  0  0  0  0  0  0  0  0  0
    7.0292   -1.8167    0.0000 C   0  0  0  0  0  0  0  0  0  0  0  0
    5.6042   -1.8167    0.0000 N   0  0  0  0  0  0  0  0  0  0  0  0
    4.1792   -2.6375    0.0000 N   0  0  0  0  0  0  0  0  0  0  0  0
    1.3292   -2.6417    0.0000 O   0  0  0  0  0  0  0  0  0  0  0  0
    6.3167   -1.4042    0.0000 C   0  0  0  0  0  0  0  0  0  0  0  0
    0.6167   -3.0542    0.0000 C   0  0  0  0  0  0  0  0  0  0  0  0
    8.4500   -2.6417    0.0000 C   0  0  0  0  0  0  0  0  0  0  0  0
    9.1625   -1.4125    0.0000 C   0  0  0  0  0  0  0  0  0  0  0  0
    7.0250   -2.6417    0.0000 O   0  0  0  0  0  0  0  0  0  0  0  0
    0.6167   -3.8875    0.0000 C   0  0  0  0  0  0  0  0  0  0  0  0
    3.4667   -3.0500    0.0000 C   0  0  0  0  0  0  0  0  0  0  0  0
    2.7542   -2.6417    0.0000 C   0  0  0  0  0  0  0  0  0  0  0  0
    4.8917   -1.4042    0.0000 C   0  0  0  0  0  0  0  0  0  0  0  0
    4.1750   -1.8125    0.0000 C   0  0  0  0  0  0  0  0  0  0  0  0
    4.8917   -3.0500    0.0000 C   0  0  0  0  0  0  0  0  0  0  0  0
    5.6000   -2.6375    0.0000 C   0  0  0  0  0  0  0  0  0  0  0  0
    2.0417   -3.0542    0.0000 C   0  0  0  0  0  0  0  0  0  0  0  0
    1.3292   -4.3000    0.0000 O   0  0  0  0  0  0  0  0  0  0  0  0
    2.7500   -1.8167    0.0000 O   0  0  0  0  0  0  0  0  0  0  0  0
    9.8750   -2.6500    0.0000 C   0  0  0  0  0  0  0  0  0  0  0  0
    9.1542   -3.0542    0.0000 C   0  0  0  0  0  0  0  0  0  0  0  0
    9.8667   -1.8167    0.0000 C   0  0  0  0  0  0  0  0  0  0  0  0
    9.1542   -0.5875    0.0000 C   0  0  0  0  0  0  0  0  0  0  0  0
    7.7292   -3.0542    0.0000 C   0  0  0  0  0  0  0  0  0  0  0  0
   -0.1000   -2.6417    0.0000 C   0  0  0  0  0  0  0  0  0  0  0  0
   -0.1000   -4.3000    0.0000 C   0  0  0  0  0  0  0  0  0  0  0  0
    1.3292   -5.1250    0.0000 C   0  0  0  0  0  0  0  0  0  0  0  0
   -0.8125   -3.8875    0.0000 C   0  0  0  0  0  0  0  0  0  0  0  0
   -0.8125   -3.0625    0.0000 C   0  0  0  0  0  0  0  0  0  0  0  0
  2  1  1  0
  3  2  1  0
  4  7  1  0
  5 17  1  0
  6 19  1  0
  7  3  1  0
  8  6  1  0
  9  1  2  0
 10  1  1  0
 11  3  2  0
 12  8  2  0
 13  5  1  0
 14 13  1  0
 15  4  1  0
 16 15  1  0
 17 18  1  0
 18  4  1  0
 19 14  1  0
 20 12  1  0
 21 14  1  0
 22 24  1  0
 23  9  1  0
 24 10  2  0
 25 10  1  0
 26  9  1  0
 27  8  1  0
 28 12  1  0
 29 20  1  0
 30 31  1  0
 31 27  2  0
 22 23  2  0
  5 16  1  0
 28 30  2  0
M  END
>  <ID>  (211) 


>  <MOLENAME>  (211) 
RANOLAZINE

>  <therap>  (211) 
antianginal, antiischemic

>  <ref>  (211) 
Gen Pharmacol 30:639 (1998); Expert Opin Invest Drugs 11:117 (2002)

>  <cas#>  (211) 
95635-55-5

>  <source>  (211) 
synthetic; RS-43285-003; CVT-303

>  <status>  (211) 
USAN, INN

>  <tradename>  (211) 
RANEXA

>  <SMILES>  (211) 
COc1c(OCC(O)CN2CCN(CC(=O)Nc3c(C)cccc3C)CC2)cccc1

>  <standardized_failed>  (211) 
False

$$$$

     RDKit          2D

 18 20  0  0  0  0  0  0  0  0999 V2000
    4.5042   -0.3625    0.0000 C   0  0  0  0  0  0  0  0  0  0  0  0
    3.8542   -0.7417    0.0000 C   0  0  0  0  0  0  0  0  0  0  0  0
    5.1625   -0.7417    0.0000 C   0  0  0  0  0  0  0  0  0  0  0  0
    4.5042   -1.8667    0.0000 C   0  0  0  0  0  0  0  0  0  0  0  0
    5.1625   -1.4917    0.0000 C   0  0  0  0  0  0  0  0  0  0  0  0
    3.8542   -1.4917    0.0000 C   0  0  0  0  0  0  0  0  0  0  0  0
    4.5042    0.3875    0.0000 O   0  0  0  0  0  0  0  0  0  0  0  0
    3.2000   -0.3625    0.0000 C   0  0  0  0  0  0  0  0  0  0  0  0
    5.8167   -0.3625    0.0000 C   0  0  0  0  0  0  0  0  0  0  0  0
    4.5042   -2.6167    0.0000 O   0  0  0  0  0  0  0  0  0  0  0  0
    3.2000   -1.8667    0.0000 C   0  0  0  0  0  0  0  0  0  0  0  0
    5.8167   -1.8667    0.0000 C   0  0  0  0  0  0  0  0  0  0  0  0
    5.8167    0.3875    0.0000 O   0  0  0  0  0  0  0  0  0  0  0  0
    3.2000    0.3875    0.0000 O   0  0  0  0  0  0  0  0  0  0  0  0
    2.5542   -1.4917    0.0000 C   0  0  0  0  0  0  0  0  0  0  0  0
    6.4667   -1.4917    0.0000 C   0  0  0  0  0  0  0  0  0  0  0  0
    2.5542   -0.7417    0.0000 C   0  0  0  0  0  0  0  0  0  0  0  0
    6.4667   -0.7417    0.0000 C   0  0  0  0  0  0  0  0  0  0  0  0
  2  1  1  0
  3  1  1  0
  4  5  1  0
  5  3  2  0
  6  2  2  0
  7  1  2  0
  8  2  1  0
  9  3  1  0
 10  4  2  0
 11  6  1  0
 12  5  1  0
 13  9  1  0
 14  8  1  0
 15 17  1  0
 16 18  1  0
 17  8  2  0
 18  9  2  0
  4  6  1  0
 16 12  2  0
 15 11  2  0
M  END
>  <ID>  (212) 


>  <MOLENAME>  (212) 
DANTHRON

>  <therap>  (212) 
cathartic

>  <ref>  (212) 
JACS 53: 4112 (1931)

>  <cas#>  (212) 
117-10-2

>  <source>  (212) 
Rheum palmatum, Xyris semifuscata

>  <status>  (212) 
USP-XXI, INN, BAN

>  <tradename>  (212) 
DORBANE

>  <SMILES>  (212) 
O=C1c2c(C(=O)c3c1cccc3O)c(O)ccc2

>  <standardized_failed>  (212) 
False

$$$$

     RDKit          2D

 23 24  0  0  0  0  0  0  0  0999 V2000
    6.1125   -1.9708    0.0000 S   0  0  0  0  0  0  0  0  0  0  0  0
    6.9458   -1.9750    0.0000 C   0  0  0  0  0  0  0  0  0  0  0  0
    5.2833   -1.9667    0.0000 C   0  0  0  0  0  0  0  0  0  0  0  0
    6.1167   -1.1417    0.0000 O   0  0  0  0  0  0  0  0  0  0  0  0
    6.1125   -2.8042    0.0000 O   0  0  0  0  0  0  0  0  0  0  0  0
    2.4042   -1.2167    0.0000 C   0  0  0  0  0  0  0  0  0  0  0  0
    9.8417   -2.6792    0.0000 C   0  0  0  0  0  0  0  0  0  0  0  0
    2.8083   -1.9417    0.0000 N   0  0  0  0  0  0  0  0  0  0  0  0
    9.4333   -1.9750    0.0000 N   0  0  0  0  0  0  0  0  0  0  0  0
    2.8292   -0.5083    0.0000 O   0  0  0  0  0  0  0  0  0  0  0  0
    9.4417   -3.4042    0.0000 O   0  0  0  0  0  0  0  0  0  0  0  0
    4.8708   -2.6833    0.0000 C   0  0  0  0  0  0  0  0  0  0  0  0
    7.3583   -2.6792    0.0000 C   0  0  0  0  0  0  0  0  0  0  0  0
    7.3667   -1.2625    0.0000 C   0  0  0  0  0  0  0  0  0  0  0  0
    4.8750   -1.2500    0.0000 C   0  0  0  0  0  0  0  0  0  0  0  0
    3.6333   -1.9583    0.0000 C   0  0  0  0  0  0  0  0  0  0  0  0
    8.5958   -1.9792    0.0000 C   0  0  0  0  0  0  0  0  0  0  0  0
    4.0500   -2.6750    0.0000 C   0  0  0  0  0  0  0  0  0  0  0  0
    8.1833   -1.2667    0.0000 C   0  0  0  0  0  0  0  0  0  0  0  0
    4.0542   -1.2458    0.0000 C   0  0  0  0  0  0  0  0  0  0  0  0
    8.1833   -2.6917    0.0000 C   0  0  0  0  0  0  0  0  0  0  0  0
   10.6708   -2.6792    0.0000 C   0  0  0  0  0  0  0  0  0  0  0  0
    1.5833   -1.2000    0.0000 C   0  0  0  0  0  0  0  0  0  0  0  0
  2  1  1  0
  3  1  1  0
  4  1  2  0
  5  1  2  0
  6  8  1  0
  7  9  1  0
  8 16  1  0
  9 17  1  0
 10  6  2  0
 11  7  2  0
 12  3  2  0
 13  2  2  0
 14  2  1  0
 15  3  1  0
 16 20  1  0
 17 19  1  0
 18 12  1  0
 19 14  2  0
 20 15  2  0
 21 13  1  0
 22  7  1  0
 23  6  1  0
 16 18  2  0
 21 17  2  0
M  END
>  <ID>  (213) 


>  <MOLENAME>  (213) 
ACEDAPSONE

>  <therap>  (213) 
antimalarial, leprostatic

>  <ref>  (213) 
Antimicrob Agents Chemother 9:102 (1976); Am J Trop Med Hyg.24:485 (1975); 28:559 (1979)

>  <cas#>  (213) 
77-46-3

>  <source>  (213) 
synthetic; CI-556, CN-1883, DADDS, PAM-MAR-1165

>  <status>  (213) 
USAN, INN, BAN

>  <tradename>  (213) 
HANSOLAR

>  <SMILES>  (213) 
CC(=O)Nc1ccc(S(=O)(=O)c2ccc(NC(C)=O)cc2)cc1

>  <standardized_failed>  (213) 
False

$$$$

     RDKit          2D

 19 19  0  0  0  0  0  0  0  0999 V2000
    4.1542   -2.7542    0.0000 O   0  0  0  0  0  0  0  0  0  0  0  0
    4.8667   -2.3417    0.0000 C   0  0  0  0  0  0  0  0  0  0  0  0
    4.8667   -1.5167    0.0000 C   0  0  0  0  0  0  0  0  0  0  0  0
    4.1542   -3.5792    0.0000 C   0  0  0  0  0  0  0  0  0  0  0  0
    5.5792   -2.7542    0.0000 C   0  0  0  0  0  0  0  0  0  0  0  0
    7.0125   -2.7542    0.0000 N   0  0  0  0  0  0  0  0  0  0  0  0
    7.4292   -4.4625    0.0000 Cl  0  0  0  0  0  0  0  0  0  0  0  0
    6.2917   -2.3417    0.0000 C   0  0  0  0  0  0  0  0  0  0  0  0
    5.5792   -1.1042    0.0000 C   0  0  0  0  0  0  0  0  0  0  0  0
    4.1542   -1.1042    0.0000 C   0  0  0  0  0  0  0  0  0  0  0  0
    7.7250   -2.3417    0.0000 C   0  0  0  0  0  0  0  0  0  0  0  0
    3.4375   -3.9917    0.0000 C   0  0  0  0  0  0  0  0  0  0  0  0
    4.8667   -3.9917    0.0000 C   0  0  0  0  0  0  0  0  0  0  0  0
    4.1542   -0.2792    0.0000 C   0  0  0  0  0  0  0  0  0  0  0  0
    5.5792   -0.2792    0.0000 C   0  0  0  0  0  0  0  0  0  0  0  0
    4.8667   -4.8125    0.0000 C   0  0  0  0  0  0  0  0  0  0  0  0
    3.4375   -4.8167    0.0000 C   0  0  0  0  0  0  0  0  0  0  0  0
    4.8667    0.1333    0.0000 C   0  0  0  0  0  0  0  0  0  0  0  0
    4.1542   -5.2292    0.0000 C   0  0  0  0  0  0  0  0  0  0  0  0
  2  1  1  0
  2  3  1  0
  4  1  1  0
  2  5  1  1
  6  8  1  0
  8  5  1  0
  9  3  2  0
 10  3  1  0
 11  6  1  0
 12  4  2  0
 13  4  1  0
 14 10  2  0
 15  9  1  0
 16 13  2  0
 17 12  1  0
 18 15  2  0
 19 17  2  0
 16 19  1  0
 14 18  1  0
M  END
>  <ID>  (214) 


>  <MOLENAME>  (214) 
ATOMOXETINE HYDROCHLORIDE

>  <therap>  (214) 
norepinephrine reuptake inhibitor

>  <ref>  (214) 
J Clin Pharmacol 25:296 (1985); Drug Metab Dispos 30:319 (2002); Cli Pharmacokinet  4:571 (2005)

>  <cas#>  (214) 
82248-59-7

>  <source>  (214) 
synthetic; LY-139603

>  <status>  (214) 
USAN, INN, BAN

>  <tradename>  (214) 
STRATTERA

>  <SMILES>  (214) 
CNCC[C@@H](Oc1ccccc1)c1ccccc1

>  <standardized_failed>  (214) 
False

$$$$

     RDKit          2D

 27 30  0  0  0  0  0  0  0  0999 V2000
    7.3042   -3.9042    0.0000 C   0  0  0  0  0  0  0  0  0  0  0  0
    5.1542   -5.1417    0.0000 C   0  0  0  0  0  0  0  0  0  0  0  0
    5.1542   -5.9667    0.0000 C   0  0  0  0  0  0  0  0  0  0  0  0
    7.3042   -4.7292    0.0000 C   0  0  0  0  0  0  0  0  0  0  0  0
    5.8667   -4.7292    0.0000 C   0  0  0  0  0  0  0  0  0  0  0  0
    6.5875   -5.1417    0.0000 C   0  0  0  0  0  0  0  0  0  0  0  0
    8.0875   -3.6500    0.0000 C   0  0  0  0  0  0  0  0  0  0  0  0
    4.4417   -6.3792    0.0000 C   0  0  0  0  0  0  0  0  0  0  0  0
    6.5792   -3.4917    0.0000 C   0  0  0  0  0  0  0  0  0  0  0  0
    5.8667   -3.9042    0.0000 C   0  0  0  0  0  0  0  0  0  0  0  0
    8.0875   -4.9875    0.0000 C   0  0  0  0  0  0  0  0  0  0  0  0
    4.4417   -4.7292    0.0000 C   0  0  0  0  0  0  0  0  0  0  0  0
    8.5667   -4.3167    0.0000 C   0  0  0  0  0  0  0  0  0  0  0  0
    6.5875   -5.9667    0.0000 C   0  0  0  0  0  0  0  0  0  0  0  0
    8.3417   -2.8625    0.0000 C   0  0  0  0  0  0  0  0  0  0  0  0
    5.8667   -6.3792    0.0000 C   0  0  0  0  0  0  0  0  0  0  0  0
    3.7292   -5.9667    0.0000 C   0  0  0  0  0  0  0  0  0  0  0  0
    6.4292   -1.8125    0.0000 C   0  0  0  0  0  0  0  0  0  0  0  0
    7.7875   -2.2500    0.0000 C   0  0  0  0  0  0  0  0  0  0  0  0
    6.9792   -2.4250    0.0000 O   0  0  0  0  0  0  0  0  0  0  0  0
    6.6792   -1.0292    0.0000 O   0  0  0  0  0  0  0  0  0  0  0  0
    9.1417   -2.6875    0.0000 O   0  0  0  0  0  0  0  0  0  0  0  0
    3.0042   -6.3917    0.0000 O   0  0  0  0  0  0  0  0  0  0  0  0
    3.7292   -5.1417    0.0000 C   0  0  0  0  0  0  0  0  0  0  0  0
    7.3000   -3.0792    0.0000 C   0  0  0  0  0  0  0  0  0  0  0  0
    5.1542   -4.3167    0.0000 C   0  0  0  0  0  0  0  0  0  0  0  0
    5.6250   -1.9875    0.0000 C   0  0  0  0  0  0  0  0  0  0  0  0
  2  5  1  0
  3  2  1  0
  4  1  1  0
  5 10  1  0
  6  4  1  0
  7  1  1  0
  8  3  2  0
  9  1  1  0
 10  9  1  0
 11  4  1  0
 12  2  1  0
 13  7  1  0
 14  6  1  0
  7 15  1  1
 16 14  1  0
 17 24  1  0
 18 20  1  0
 19 15  1  0
 20 19  1  0
 21 18  2  0
 22 15  2  0
 23 17  2  0
 24 12  1  0
  1 25  1  1
  2 26  1  1
 27 18  1  0
 11 13  1  0
  6  5  1  0
 16  3  1  0
  8 17  1  0
M  END
>  <ID>  (215) 


>  <MOLENAME>  (215) 
DESOXYCORTICOSTERONE ACETATE

>  <therap>  (215) 
mineralocorticoid

>  <ref>  (215) 
Endocrinology (1967), 81(6), 1231-40; Arch. Int. Pharmacodyn. Ther. (1967), 166(1), 79-86; Acta Endocrinol. (1967), 54(3), 399-410

>  <cas#>  (215) 
56-47-3

>  <source>  (215) 
adrenocortex

>  <status>  (215) 
USP, INN, BAN

>  <tradename>  (215) 
PERCOTEN

>  <SMILES>  (215) 
CC(=O)OCC(=O)[C@H]1CCC2C3CCC4=CC(=O)CC[C@]4(C)C3CC[C@@]21C

>  <standardized_failed>  (215) 
False

$$$$

     RDKit          2D

 20 20  0  0  0  0  0  0  0  0999 V2000
    5.1000   -2.5042    0.0000 C   0  0  0  0  0  0  0  0  0  0  0  0
    5.0917   -3.3292    0.0000 C   0  0  0  0  0  0  0  0  0  0  0  0
    4.3917   -2.0917    0.0000 C   0  0  0  0  0  0  0  0  0  0  0  0
    4.3750   -3.7417    0.0000 C   0  0  0  0  0  0  0  0  0  0  0  0
    3.6750   -2.5042    0.0000 C   0  0  0  0  0  0  0  0  0  0  0  0
    4.3667   -4.5667    0.0000 N   0  0  0  0  0  0  0  0  0  0  0  0
    4.3792   -2.9250    0.0000 O   0  0  0  0  0  0  0  0  0  0  0  0
    2.9625   -2.0917    0.0000 C   0  0  0  0  0  0  0  0  0  0  0  0
    7.8917   -3.6167    0.0000 Cl  0  0  0  0  0  0  0  0  0  0  0  0
    5.8167   -2.1000    0.0000 C   0  0  0  0  0  0  0  0  0  0  0  0
    4.3917   -1.2625    0.0000 C   0  0  0  0  0  0  0  0  0  0  0  0
    5.8042   -3.7500    0.0000 C   0  0  0  0  0  0  0  0  0  0  0  0
    2.2500   -2.5000    0.0000 O   0  0  0  0  0  0  0  0  0  0  0  0
    3.6750   -0.8500    0.0000 C   0  0  0  0  0  0  0  0  0  0  0  0
    2.9625   -1.2625    0.0000 C   0  0  0  0  0  0  0  0  0  0  0  0
    3.6542   -4.9750    0.0000 C   0  0  0  0  0  0  0  0  0  0  0  0
    5.0792   -4.9792    0.0000 C   0  0  0  0  0  0  0  0  0  0  0  0
    2.2500   -3.3250    0.0000 C   0  0  0  0  0  0  0  0  0  0  0  0
    6.5292   -2.5125    0.0000 C   0  0  0  0  0  0  0  0  0  0  0  0
    6.5292   -3.3417    0.0000 C   0  0  0  0  0  0  0  0  0  0  0  0
  2  1  1  0
  3  1  1  0
  2  4  1  1
  5  3  2  0
  6  4  1  0
  1  7  1  1
  8  5  1  0
 10  1  1  0
 11  3  1  0
 12  2  1  0
 13  8  1  0
 14 11  2  0
 15 14  1  0
 16  6  1  0
 17  6  1  0
 18 13  1  0
 19 10  1  0
 20 19  1  0
 12 20  1  0
 15  8  2  0
M  END
>  <ID>  (216) 


>  <MOLENAME>  (216) 
TRAMADOL HYDROCHLORIDE

>  <therap>  (216) 
analgesic

>  <ref>  (216) 
Arzneim Forsch 28:107, 114 (1978);  Drugs 47 Suppl 1: 1 (1994)

>  <cas#>  (216) 
36282-47-0

>  <source>  (216) 
synthetic; U-26225A, CG-315E

>  <status>  (216) 
USAN, INN, BAN, JAN

>  <tradename>  (216) 
ULTRAM

>  <SMILES>  (216) 
COc1cccc([C@]2(O)CCCC[C@H]2CN(C)C)c1

>  <standardized_failed>  (216) 
False

$$$$

     RDKit          2D

 23 23  0  0  0  0  0  0  0  0999 V2000
    6.2250   -4.0792    0.0000 C   0  0  0  0  0  0  0  0  0  0  0  0
    6.9375   -3.6625    0.0000 C   0  0  0  0  0  0  0  0  0  0  0  0
    2.6667   -5.3250    0.0000 C   0  0  0  0  0  0  0  0  0  0  0  0
    1.9542   -5.7417    0.0000 C   0  0  0  0  0  0  0  0  0  0  0  0
    2.6625   -4.5000    0.0000 C   0  0  0  0  0  0  0  0  0  0  0  0
    5.5125   -4.4917    0.0000 C   0  0  0  0  0  0  0  0  0  0  0  0
    7.6417   -3.2417    0.0000 C   0  0  0  0  0  0  0  0  0  0  0  0
    4.8000   -4.0792    0.0000 C   0  0  0  0  0  0  0  0  0  0  0  0
    3.3750   -4.0875    0.0000 N   0  0  0  0  0  0  0  0  0  0  0  0
    1.9542   -6.5667    0.0000 C   0  0  0  0  0  0  0  0  0  0  0  0
    6.2750   -5.9000    0.0000 Cl  0  0  0  0  0  0  0  0  0  0  0  0
    3.3792   -5.7292    0.0000 C   0  0  0  0  0  0  0  0  0  0  0  0
    4.0875   -4.4917    0.0000 C   0  0  0  0  0  0  0  0  0  0  0  0
    3.3875   -6.5625    0.0000 C   0  0  0  0  0  0  0  0  0  0  0  0
    1.2417   -5.3292    0.0000 C   0  0  0  0  0  0  0  0  0  0  0  0
    2.6750   -6.9792    0.0000 C   0  0  0  0  0  0  0  0  0  0  0  0
    8.3542   -2.8250    0.0000 C   0  0  0  0  0  0  0  0  0  0  0  0
    8.3625   -3.6417    0.0000 C   0  0  0  0  0  0  0  0  0  0  0  0
    7.6375   -2.4167    0.0000 C   0  0  0  0  0  0  0  0  0  0  0  0
    3.3667   -3.2625    0.0000 C   0  0  0  0  0  0  0  0  0  0  0  0
    1.2417   -6.9792    0.0000 C   0  0  0  0  0  0  0  0  0  0  0  0
    0.5292   -5.7417    0.0000 C   0  0  0  0  0  0  0  0  0  0  0  0
    0.5292   -6.5667    0.0000 C   0  0  0  0  0  0  0  0  0  0  0  0
  2  1  3  0
  3  5  1  0
  4  3  2  0
  5  9  1  0
  6  1  1  0
  7  2  1  0
  8  6  2  0
  9 13  1  0
 10  4  1  0
 12  3  1  0
 13  8  1  0
 14 12  2  0
 15  4  1  0
 16 14  1  0
 17  7  1  0
 18  7  1  0
 19  7  1  0
 20  9  1  0
 21 10  1  0
 22 15  2  0
 23 22  1  0
 16 10  2  0
 21 23  2  0
M  END
>  <ID>  (217) 


>  <MOLENAME>  (217) 
TERBINAFINE HYDROCHLORIDE

>  <therap>  (217) 
antifungal

>  <ref>  (217) 
Proc 13th Int Congr Chemother 6:116/52 (1983); Br Med J 318:1031 (1999)

>  <cas#>  (217) 
78628-80-5, 91161-71-6(base)

>  <source>  (217) 
synthetic, SF-86-327

>  <status>  (217) 
USAN, INN, BAN

>  <tradename>  (217) 
LAMISIL

>  <SMILES>  (217) 
CN(C/C=C/C#CC(C)(C)C)Cc1c2ccccc2ccc1

>  <standardized_failed>  (217) 
False

$$$$

     RDKit          2D

 22 24  0  0  0  0  0  0  0  0999 V2000
    3.3167   -0.6042    0.0000 C   0  0  0  0  0  0  0  0  0  0  0  0
    2.9125   -1.3167    0.0000 C   0  0  0  0  0  0  0  0  0  0  0  0
    2.0875   -1.3167    0.0000 C   0  0  0  0  0  0  0  0  0  0  0  0
    4.9542    0.8375    0.0000 S   0  0  0  0  0  0  0  0  0  0  0  0
    4.1250   -0.7792    0.0000 O   0  0  0  0  0  0  0  0  0  0  0  0
    3.4542   -1.9292    0.0000 O   0  0  0  0  0  0  0  0  0  0  0  0
    1.6667   -0.6042    0.0000 C   0  0  0  0  0  0  0  0  0  0  0  0
    4.2042   -1.5917    0.0000 C   0  0  0  0  0  0  0  0  0  0  0  0
    1.5375   -1.9292    0.0000 O   0  0  0  0  0  0  0  0  0  0  0  0
    0.7792   -1.6000    0.0000 C   0  0  0  0  0  0  0  0  0  0  0  0
    0.8667   -0.7792    0.0000 O   0  0  0  0  0  0  0  0  0  0  0  0
    2.9125    0.1083    0.0000 O   0  0  0  0  0  0  0  0  0  0  0  0
    3.7292    0.1083    0.0000 C   0  0  0  0  0  0  0  0  0  0  0  0
    4.5500    0.1208    0.0000 O   0  0  0  0  0  0  0  0  0  0  0  0
    2.0875    0.1083    0.0000 C   0  0  0  0  0  0  0  0  0  0  0  0
    4.1542    1.0583    0.0000 O   0  0  0  0  0  0  0  0  0  0  0  0
    5.4667    1.4875    0.0000 O   0  0  0  0  0  0  0  0  0  0  0  0
    5.7750    0.5208    0.0000 N   0  0  0  0  0  0  0  0  0  0  0  0
    4.4167   -2.3917    0.0000 C   0  0  0  0  0  0  0  0  0  0  0  0
    5.0042   -1.3792    0.0000 C   0  0  0  0  0  0  0  0  0  0  0  0
   -0.0208   -1.3792    0.0000 C   0  0  0  0  0  0  0  0  0  0  0  0
    0.3667   -2.3125    0.0000 C   0  0  0  0  0  0  0  0  0  0  0  0
  2  1  1  0
  3  2  1  0
  4 14  1  0
  1  5  1  0
  2  6  1  1
  7 15  1  6
  8  5  1  0
  3  9  1  6
 10  9  1  0
  7 11  1  0
 12  1  1  0
  1 13  1  6
 14 13  1  0
 15 12  1  0
 16  4  2  0
 17  4  2  0
 18  4  1  0
 19  8  1  0
 20  8  1  0
 21 10  1  0
 22 10  1  0
  8  6  1  0
  7  3  1  0
 10 11  1  0
M  END
>  <ID>  (218) 


>  <MOLENAME>  (218) 
TOPIRAMATE

>  <therap>  (218) 
anticonvulsant, antimigraine, GABA-A agonist, AMP/kinate glutamate receptor antagonist,  carbonic anhydrase inhibitor

>  <ref>  (218) 
Int J Clin Pract 59:961 (2005); Clin Ther 27:154 (2005)

>  <cas#>  (218) 
97240-79-4

>  <source>  (218) 
synthetic; RWJ-17021

>  <status>  (218) 
USAN, INN, BAN

>  <tradename>  (218) 
TOPAMAX

>  <SMILES>  (218) 
CC1(C)O[C@@H]2CO[C@@]3(COS(N)(=O)=O)OC(C)(C)O[C@H]3[C@@H]2O1

>  <standardized_failed>  (218) 
False

$$$$

     RDKit          2D

 33 35  0  0  0  0  0  0  0  0999 V2000
    7.0167   -3.0167    0.0000 C   0  0  0  0  0  0  0  0  0  0  0  0
    7.0167   -2.1917    0.0000 C   0  0  0  0  0  0  0  0  0  0  0  0
    8.4417   -2.1875    0.0000 C   0  0  0  0  0  0  0  0  0  0  0  0
    7.7292   -3.4292    0.0000 N   0  0  0  0  0  0  0  0  0  0  0  0
    6.3000   -3.4375    0.0000 N   0  0  0  0  0  0  0  0  0  0  0  0
    4.8750   -3.4417    0.0000 N   0  0  0  0  0  0  0  0  0  0  0  0
    7.7250   -1.7792    0.0000 C   0  0  0  0  0  0  0  0  0  0  0  0
    5.5875   -3.0250    0.0000 C   0  0  0  0  0  0  0  0  0  0  0  0
    8.4417   -3.0167    0.0000 C   0  0  0  0  0  0  0  0  0  0  0  0
    5.7125   -5.6000    0.0000 S   0  0  0  0  0  0  0  0  0  0  0  0
    3.5667   -3.7167    0.0000 C   0  0  0  0  0  0  0  0  0  0  0  0
    6.3000   -1.7792    0.0000 C   0  0  0  0  0  0  0  0  0  0  0  0
    7.7292   -4.2542    0.0000 C   0  0  0  0  0  0  0  0  0  0  0  0
    3.9792   -4.4292    0.0000 C   0  0  0  0  0  0  0  0  0  0  0  0
    9.1542   -1.7667    0.0000 C   0  0  0  0  0  0  0  0  0  0  0  0
    5.5875   -2.2000    0.0000 C   0  0  0  0  0  0  0  0  0  0  0  0
    4.1167   -3.1042    0.0000 C   0  0  0  0  0  0  0  0  0  0  0  0
    4.7875   -4.2542    0.0000 C   0  0  0  0  0  0  0  0  0  0  0  0
    7.3250   -4.9667    0.0000 C   0  0  0  0  0  0  0  0  0  0  0  0
    8.1500   -4.9667    0.0000 C   0  0  0  0  0  0  0  0  0  0  0  0
    2.7500   -3.6292    0.0000 N   0  0  0  0  0  0  0  0  0  0  0  0
    6.0125   -5.0042    0.0000 O   0  0  0  0  0  0  0  0  0  0  0  0
    5.4625   -6.1792    0.0000 O   0  0  0  0  0  0  0  0  0  0  0  0
    7.7167   -0.9542    0.0000 O   0  0  0  0  0  0  0  0  0  0  0  0
    9.1500   -0.9417    0.0000 O   0  0  0  0  0  0  0  0  0  0  0  0
    5.1417   -5.2667    0.0000 O   0  0  0  0  0  0  0  0  0  0  0  0
    4.8750   -1.7875    0.0000 F   0  0  0  0  0  0  0  0  0  0  0  0
    9.8667   -2.1792    0.0000 O   0  0  0  0  0  0  0  0  0  0  0  0
    6.2792   -5.9292    0.0000 C   0  0  0  0  0  0  0  0  0  0  0  0
    3.6417   -5.1792    0.0000 C   0  0  0  0  0  0  0  0  0  0  0  0
    2.4125   -2.8750    0.0000 O   0  0  0  0  0  0  0  0  0  0  0  0
    2.8250   -5.2667    0.0000 N   0  0  0  0  0  0  0  0  0  0  0  0
    1.5917   -2.7875    0.0000 C   0  0  0  0  0  0  0  0  0  0  0  0
  2  1  2  0
  3  9  2  0
  4  1  1  0
  5  1  1  0
  6  8  1  0
  7  2  1  0
  8  5  2  0
  9  4  1  0
 11 17  1  0
 12  2  1  0
 13  4  1  0
 14 18  1  0
 15  3  1  0
 16 12  2  0
 17  6  1  0
 18  6  1  0
 19 13  1  0
 20 13  1  0
 21 11  2  0
 22 10  2  0
 23 10  2  0
 24  7  2  0
 25 15  2  0
 26 10  1  0
 27 16  1  0
 28 15  1  0
 29 10  1  0
 30 14  1  0
 31 21  1  0
 32 30  1  0
 33 31  1  0
  3  7  1  0
 19 20  1  0
  8 16  1  0
 14 11  1  0
M  END
>  <ID>  (219) 


>  <MOLENAME>  (219) 
GEMIFLOXACIN MESYLATE

>  <therap>  (219) 
antibacterial

>  <ref>  (219) 
Antimicrob Agents Chemother 44:1604 (2000); Expert Opin Pharmacother 5:1117 (2004)

>  <cas#>  (219) 
204519-65-3

>  <source>  (219) 
synthetic; SB-265805S, LB-20304a

>  <status>  (219) 
USAN

>  <tradename>  (219) 
FACTIVE

>  <SMILES>  (219) 
CO/N=C1\CN(c2nc3c(cc2F)c(=O)c(C(=O)O)cn3C2CC2)CC1CN

>  <standardized_failed>  (219) 
False

$$$$

     RDKit          2D

 31 31  0  0  0  0  0  0  0  0999 V2000
    2.8500   -3.6917    0.0000 C   0  0  0  0  0  0  0  0  0  0  0  0
    2.8542   -2.8667    0.0000 C   0  0  0  0  0  0  0  0  0  0  0  0
    2.1417   -2.4542    0.0000 C   0  0  0  0  0  0  0  0  0  0  0  0
    1.4292   -1.2167    0.0000 C   0  0  0  0  0  0  0  0  0  0  0  0
    3.5625   -4.1042    0.0000 C   0  0  0  0  0  0  0  0  0  0  0  0
    2.1417   -4.1042    0.0000 C   0  0  0  0  0  0  0  0  0  0  0  0
    2.1417   -1.6292    0.0000 O   0  0  0  0  0  0  0  0  0  0  0  0
    3.5667   -2.4542    0.0000 C   0  0  0  0  0  0  0  0  0  0  0  0
    4.2792   -3.7000    0.0000 C   0  0  0  0  0  0  0  0  0  0  0  0
    1.4292   -2.8667    0.0000 C   0  0  0  0  0  0  0  0  0  0  0  0
    4.3417    2.0708    0.0000 C   0  0  0  0  0  0  0  0  0  0  0  0
    4.3292    1.2458    0.0000 C   0  0  0  0  0  0  0  0  0  0  0  0
    3.5750   -1.6292    0.0000 C   0  0  0  0  0  0  0  0  0  0  0  0
    1.4292   -3.6917    0.0000 C   0  0  0  0  0  0  0  0  0  0  0  0
    4.2750   -2.8792    0.0000 C   0  0  0  0  0  0  0  0  0  0  0  0
    1.4292   -0.3917    0.0000 O   0  0  0  0  0  0  0  0  0  0  0  0
    5.0667    2.4708    0.0000 O   0  0  0  0  0  0  0  0  0  0  0  0
    3.6375    2.4958    0.0000 O   0  0  0  0  0  0  0  0  0  0  0  0
    5.0375    0.8208    0.0000 C   0  0  0  0  0  0  0  0  0  0  0  0
    5.0250   -0.0042    0.0000 C   0  0  0  0  0  0  0  0  0  0  0  0
    0.7125   -1.6292    0.0000 C   0  0  0  0  0  0  0  0  0  0  0  0
    4.2917   -1.2292    0.0000 C   0  0  0  0  0  0  0  0  0  0  0  0
    0.7167   -4.1042    0.0000 O   0  0  0  0  0  0  0  0  0  0  0  0
    4.3042   -0.4042    0.0000 C   0  0  0  0  0  0  0  0  0  0  0  0
    6.3042    2.0000    0.0000 Na  0  0  0  0  0 15  0  0  0  0  0  0
    5.7542    1.2208    0.0000 O   0  0  0  0  0  0  0  0  0  0  0  0
    3.5917    0.0125    0.0000 O   0  0  0  0  0  0  0  0  0  0  0  0
    4.9917   -2.4750    0.0000 C   0  0  0  0  0  0  0  0  0  0  0  0
    0.0000   -1.2167    0.0000 C   0  0  0  0  0  0  0  0  0  0  0  0
    0.7125   -2.4542    0.0000 C   0  0  0  0  0  0  0  0  0  0  0  0
    0.0000   -0.3917    0.0000 C   0  0  0  0  0  0  0  0  0  0  0  0
  2  1  1  0
  3  2  1  0
  4  7  1  0
  5  1  1  0
  6  1  2  0
  3  7  1  6
  8  2  1  0
  9  5  2  0
 10 14  1  0
 11 12  1  0
 12 19  1  0
  8 13  1  1
 14  6  1  0
 15  9  1  0
 16  4  2  0
 17 11  1  0
 18 11  2  0
 19 20  1  0
 20 24  1  0
 21  4  1  0
 22 13  1  0
 14 23  1  1
 24 22  1  0
 19 26  1  6
 24 27  1  1
 15 28  1  1
 29 21  1  0
 30 21  1  0
 31 29  1  0
 10  3  1  0
 15  8  1  0
M  CHG  2  17  -1  25   1
M  END
>  <ID>  (220) 


>  <MOLENAME>  (220) 
PRAVASTATIN SODIUM

>  <therap>  (220) 
antihyperlipidemic, HMGCoA reductase inhibitor

>  <ref>  (220) 
Athersclerosis 61:125 (1986); N Engl J Med 323:224 (1998); 339:1349 (1998); 342:317 (2000)

>  <cas#>  (220) 
81131-70-6

>  <source>  (220) 
synthetic; CS-514; SQ-31000 

>  <status>  (220) 
USAN, INN, BAN, JAN

>  <tradename>  (220) 
PRAVACHOL

>  <SMILES>  (220) 
CCC(C)C(=O)O[C@H]1C[C@H](O)C=C2C=C[C@H](C)[C@H](CC[C@@H](O)C[C@@H](O)CC(=O)O)C21

>  <standardized_failed>  (220) 
False

$$$$

     RDKit          2D

 18 17  0  0  0  0  0  0  0  0999 V2000
    1.4375    0.2083    0.0000 C   0  0  0  0  0  0  0  0  0  0  0  0
    2.1875    0.2083    0.0000 C   0  0  0  0  0  0  0  0  0  0  0  0
    2.5625   -0.4375    0.0000 C   0  0  0  0  0  0  0  0  0  0  0  0
    1.0625   -0.4375    0.0000 C   0  0  0  0  0  0  0  0  0  0  0  0
    4.4375   -1.0792    0.0000 N   0  0  0  0  0  0  0  0  0  0  0  0
    2.1875   -1.0875    0.0000 C   0  0  0  0  0  0  0  0  0  0  0  0
    4.8125   -1.7292    0.0000 C   0  0  0  0  0  0  0  0  0  0  0  0
    1.4375   -1.0875    0.0000 C   0  0  0  0  0  0  0  0  0  0  0  0
    3.6875   -1.0792    0.0000 C   0  0  0  0  0  0  0  0  0  0  0  0
    3.3125   -0.4375    0.0000 C   0  0  0  0  0  0  0  0  0  0  0  0
    0.3125   -0.4375    0.0000 O   0  0  0  0  0  0  0  0  0  0  0  0
    6.5875   -0.0917    0.0000 Cl  0  0  0  0  0  0  0  0  0  0  0  0
    1.0542    0.8625    0.0000 C   0  0  0  0  0  0  0  0  0  0  0  0
    3.6875    0.2125    0.0000 O   0  0  0  0  0  0  0  0  0  0  0  0
    1.4292    1.5125    0.0000 O   0  0  0  0  0  0  0  0  0  0  0  0
    4.1542   -2.1042    0.0000 C   0  0  0  0  0  0  0  0  0  0  0  0
    5.1875   -2.3792    0.0000 C   0  0  0  0  0  0  0  0  0  0  0  0
    5.4625   -1.3500    0.0000 C   0  0  0  0  0  0  0  0  0  0  0  0
  2  1  2  0
  3  2  1  0
  4  1  1  0
  5  9  1  0
  6  8  1  0
  7  5  1  0
  8  4  2  0
  9 10  1  0
 10  3  1  0
 11  4  1  0
 13  1  1  0
 10 14  1  1
 15 13  1  0
 16  7  1  0
 17  7  1  0
 18  7  1  0
  6  3  2  0
M  END
>  <ID>  (221) 


>  <MOLENAME>  (221) 
LEVALBUTEROL HYDROCHLORIDE

>  <therap>  (221) 
bronchodilator, tocolytic

>  <ref>  (221) 
Pulm. Pharmacol. Ther. (1997), 10(2), 97-104; J. Pharmacol. Exp. Ther. (1974), 189(1), 616-25; J. Med. Chem. (1971), 14(9), 895-6

>  <cas#>  (221) 
50293-90-8

>  <source>  (221) 
synthetic

>  <status>  (221) 
USAN

>  <tradename>  (221) 
XOPENEX

>  <SMILES>  (221) 
CC(C)(C)NC[C@H](O)c1ccc(O)c(CO)c1

>  <standardized_failed>  (221) 
False

$$$$

     RDKit          2D

 10  8  0  0  0  0  0  0  0  0999 V2000
    0.6167   -0.1167    0.0000 C   0  0  0  0  0  0  0  0  0  0  0  0
    1.3292   -0.5292    0.0000 N   0  0  0  0  0  0  0  0  0  0  0  0
    2.0417   -0.1167    0.0000 C   0  0  0  0  0  0  0  0  0  0  0  0
    0.6167    0.7083    0.0000 N   0  0  0  0  0  0  0  0  0  0  0  0
   -0.0958   -0.5292    0.0000 N   0  0  0  0  0  0  0  0  0  0  0  0
    2.0417    0.7083    0.0000 N   0  0  0  0  0  0  0  0  0  0  0  0
    2.7542   -0.5292    0.0000 N   0  0  0  0  0  0  0  0  0  0  0  0
    4.1542   -0.0625    0.0000 Cl  0  0  0  0  0  0  0  0  0  0  0  0
   -0.8125   -0.1167    0.0000 C   0  0  0  0  0  0  0  0  0  0  0  0
   -0.0958   -1.3542    0.0000 C   0  0  0  0  0  0  0  0  0  0  0  0
  2  1  1  0
  3  2  1  0
  4  1  2  0
  5  1  1  0
  6  3  2  0
  7  3  1  0
  9  5  1  0
 10  5  1  0
M  END
>  <ID>  (222) 


>  <MOLENAME>  (222) 
METFORMIN HYDROCHLORIDE

>  <therap>  (222) 
antidiabetic

>  <ref>  (222) 
Diabete Metab 5:233 (1979); Brit Med J 327:951 (2003); Clin Ther 25:2991 (2003)

>  <cas#>  (222) 
1115-70-4, 657-24-9(metformin)

>  <source>  (222) 
synthetic; LA-6023

>  <status>  (222) 
USAN, JAN 
(metformin is INN, BAN)

>  <tradename>  (222) 
FORTAMET

>  <SMILES>  (222) 
CN(C)C(=N)NC(=N)N

>  <standardized_failed>  (222) 
False

$$$$

     RDKit          2D

 11 10  0  0  0  0  0  0  0  0999 V2000
    4.6792   -1.5167    0.0000 C   0  0  0  0  0  0  0  0  0  0  0  0
    4.6792   -0.6917    0.0000 O   0  0  0  0  0  0  0  0  0  0  0  0
    3.9667   -1.9292    0.0000 C   0  0  0  0  0  0  0  0  0  0  0  0
    3.2500   -1.5167    0.0000 C   0  0  0  0  0  0  0  0  0  0  0  0
    5.3917   -1.9292    0.0000 O   0  0  0  0  0  0  0  0  0  0  0  0
    2.5375   -1.9292    0.0000 C   0  0  0  0  0  0  0  0  0  0  0  0
    3.9667   -0.2792    0.0000 N   0  0  0  0  0  0  0  0  0  0  0  0
    3.2500   -0.6917    0.0000 C   0  0  0  0  0  0  0  0  0  0  0  0
    1.8167   -1.5167    0.0000 C   0  0  0  0  0  0  0  0  0  0  0  0
    1.1042   -1.9292    0.0000 C   0  0  0  0  0  0  0  0  0  0  0  0
    1.8167   -0.6917    0.0000 C   0  0  0  0  0  0  0  0  0  0  0  0
  2  1  2  0
  3  1  1  0
  4  3  1  1
  5  1  1  0
  6  4  1  0
  7  8  1  0
  4  8  1  0
  9  6  1  0
 10  9  1  0
 11  9  1  0
M  END
>  <ID>  (223) 


>  <MOLENAME>  (223) 
PREGABALIN

>  <therap>  (223) 
anticonvulsant

>  <ref>  (223) 
J Clin Psychiatry 65:596 (1033 (2004); Curr Opin Invest Drugs 5:82 (2004)

>  <cas#>  (223) 
148553-50-8

>  <source>  (223) 
synthetic; CI-1008

>  <status>  (223) 
USAN, INN

>  <tradename>  (223) 
LYRICA

>  <SMILES>  (223) 
CC(C)C[C@@H](CN)CC(=O)O

>  <standardized_failed>  (223) 
False

$$$$

     RDKit          2D

 32 35  0  0  0  0  0  0  0  0999 V2000
    3.9417   -1.8875    0.0000 N   0  0  0  0  0  0  0  0  0  0  0  0
    5.1000   -2.7083    0.0000 C   0  0  0  0  0  0  0  0  0  0  0  0
    3.4625   -2.5583    0.0000 C   0  0  0  0  0  0  0  0  0  0  0  0
    4.6250   -3.3792    0.0000 C   0  0  0  0  0  0  0  0  0  0  0  0
    4.7583   -1.9667    0.0000 C   0  0  0  0  0  0  0  0  0  0  0  0
    2.6750   -2.3125    0.0000 C   0  0  0  0  0  0  0  0  0  0  0  0
    3.8042   -3.3042    0.0000 C   0  0  0  0  0  0  0  0  0  0  0  0
    2.6667   -1.4875    0.0000 C   0  0  0  0  0  0  0  0  0  0  0  0
    1.9583   -2.7333    0.0000 N   0  0  0  0  0  0  0  0  0  0  0  0
    4.9667   -4.1250    0.0000 C   0  0  0  0  0  0  0  0  0  0  0  0
    0.5250   -1.0833    0.0000 C   0  0  0  0  0  0  0  0  0  0  0  0
    3.4500   -1.2250    0.0000 C   0  0  0  0  0  0  0  0  0  0  0  0
    1.2417   -1.4958    0.0000 C   0  0  0  0  0  0  0  0  0  0  0  0
    5.7833   -4.2042    0.0000 C   0  0  0  0  0  0  0  0  0  0  0  0
    1.9500   -1.0792    0.0000 C   0  0  0  0  0  0  0  0  0  0  0  0
    1.2417   -2.3208    0.0000 C   0  0  0  0  0  0  0  0  0  0  0  0
    5.9167   -2.7833    0.0000 C   0  0  0  0  0  0  0  0  0  0  0  0
    6.2625   -3.5333    0.0000 O   0  0  0  0  0  0  0  0  0  0  0  0
   -0.1875   -1.5000    0.0000 C   0  0  0  0  0  0  0  0  0  0  0  0
    5.2333   -1.2917    0.0000 O   0  0  0  0  0  0  0  0  0  0  0  0
    0.5208   -0.2583    0.0000 C   0  0  0  0  0  0  0  0  0  0  0  0
    6.1250   -4.9542    0.0000 O   0  0  0  0  0  0  0  0  0  0  0  0
    0.5250   -2.7375    0.0000 C   0  0  0  0  0  0  0  0  0  0  0  0
   -0.1875   -2.3250    0.0000 C   0  0  0  0  0  0  0  0  0  0  0  0
    4.7500   -4.9167    0.0000 O   0  0  0  0  0  0  0  0  0  0  0  0
    1.2375    0.1542    0.0000 N   0  0  0  0  0  0  0  0  0  0  0  0
    4.1667   -4.3375    0.0000 C   0  0  0  0  0  0  0  0  0  0  0  0
   -0.9000   -1.0875    0.0000 O   0  0  0  0  0  0  0  0  0  0  0  0
    3.4667    0.4083    0.0000 Cl  0  0  0  0  0  0  0  0  0  0  0  0
    1.2333    0.9792    0.0000 C   0  0  0  0  0  0  0  0  0  0  0  0
    1.9500   -0.2542    0.0000 C   0  0  0  0  0  0  0  0  0  0  0  0
    3.5833   -3.7500    0.0000 C   0  0  0  0  0  0  0  0  0  0  0  0
  2  5  1  0
  3  1  1  0
  4  7  1  0
  5  1  1  0
  6  3  1  0
  7  3  2  0
  8 12  1  0
  9  6  2  0
 10  4  1  0
 11 13  2  0
 12  1  1  0
 13 15  1  0
 14 10  1  0
 15  8  2  0
 16  9  1  0
 17  2  1  0
 18 17  1  0
 19 11  1  0
 20  5  2  0
 21 11  1  0
 22 14  2  0
 23 16  2  0
 24 23  1  0
 10 25  1  1
 26 21  1  0
 10 27  1  0
 28 19  1  0
 30 26  1  0
 31 26  1  0
 32 27  1  0
  6  8  1  0
  4  2  2  0
 16 13  1  0
 18 14  1  0
 24 19  2  0
M  END
>  <ID>  (224) 


>  <MOLENAME>  (224) 
TOPOTECAN HYDROCHLORIDE

>  <therap>  (224) 
antineoplastic; topoisomerase I inhibitor

>  <ref>  (224) 
J Clin Oncol 14:1552 (1996); Expert Opin Drug Safety 4:45 (2005)

>  <cas#>  (224) 
119413-54-6

>  <source>  (224) 
semisynthetic; SKF-104864A

>  <status>  (224) 
USAN, INN, BAN

>  <tradename>  (224) 
nan

>  <SMILES>  (224) 
CC[C@@]1(O)C(=O)OCc2c1cc1-c3nc4ccc(O)c(CN(C)C)c4cc3Cn1c2=O

>  <standardized_failed>  (224) 
False

$$$$

     RDKit          2D

 22 22  0  0  0  0  0  0  0  0999 V2000
    5.3417   -2.8917    0.0000 N   0  0  0  0  0  0  0  0  0  0  0  0
    4.9292   -2.1792    0.0000 C   0  0  0  0  0  0  0  0  0  0  0  0
    6.1667   -2.8917    0.0000 C   0  0  0  0  0  0  0  0  0  0  0  0
    6.5792   -3.6125    0.0000 C   0  0  0  0  0  0  0  0  0  0  0  0
    7.4042   -3.6125    0.0000 O   0  0  0  0  0  0  0  0  0  0  0  0
    4.1042   -2.1792    0.0000 C   0  0  0  0  0  0  0  0  0  0  0  0
    7.8167   -4.3167    0.0000 C   0  0  0  0  0  0  0  0  0  0  0  0
    9.3250   -2.9667    0.0000 Cl  0  0  0  0  0  0  0  0  0  0  0  0
    3.6917   -4.3167    0.0000 Cl  0  0  0  0  0  0  0  0  0  0  0  0
    4.9292   -3.6042    0.0000 C   0  0  0  0  0  0  0  0  0  0  0  0
    4.1042   -3.6042    0.0000 C   0  0  0  0  0  0  0  0  0  0  0  0
    6.5792   -2.1792    0.0000 C   0  0  0  0  0  0  0  0  0  0  0  0
    3.6917   -2.8917    0.0000 C   0  0  0  0  0  0  0  0  0  0  0  0
    3.6917   -1.4667    0.0000 C   0  0  0  0  0  0  0  0  0  0  0  0
    7.4000   -5.0375    0.0000 C   0  0  0  0  0  0  0  0  0  0  0  0
    8.6375   -4.3167    0.0000 C   0  0  0  0  0  0  0  0  0  0  0  0
    2.8667   -2.8917    0.0000 C   0  0  0  0  0  0  0  0  0  0  0  0
    7.8125   -5.7500    0.0000 C   0  0  0  0  0  0  0  0  0  0  0  0
    9.0500   -5.0292    0.0000 C   0  0  0  0  0  0  0  0  0  0  0  0
    2.8667   -1.4667    0.0000 C   0  0  0  0  0  0  0  0  0  0  0  0
    2.4542   -2.1792    0.0000 C   0  0  0  0  0  0  0  0  0  0  0  0
    8.6375   -5.7500    0.0000 C   0  0  0  0  0  0  0  0  0  0  0  0
  2  1  1  0
  3  1  1  0
  4  3  1  0
  5  4  1  0
  6  2  1  0
  7  5  1  0
  9 11  1  0
 10  1  1  0
 11 10  1  0
 12  3  1  0
 13  6  2  0
 14  6  1  0
 15  7  2  0
 16  7  1  0
 17 13  1  0
 18 15  1  0
 19 16  2  0
 20 14  2  0
 21 17  2  0
 22 18  2  0
 20 21  1  0
 19 22  1  0
M  END
>  <ID>  (225) 


>  <MOLENAME>  (225) 
PHENOXYBENZAMINE HYDROCHLORIDE

>  <therap>  (225) 
alpha adrenergic blocker

>  <ref>  (225) 
J Clin Invest 49:2036 (1970); Arch Gen Psychiatry 29:402 (1973); J Thorac Cardiovasc Surg 126:448 (2003)

>  <cas#>  (225) 
63-92-3, 59-96-1 [phenoxybenzamine]

>  <source>  (225) 
synthetic

>  <status>  (225) 
USP

>  <tradename>  (225) 
DIBENZYLINE

>  <SMILES>  (225) 
CC(COc1ccccc1)N(CCCl)Cc1ccccc1

>  <standardized_failed>  (225) 
False

$$$$

     RDKit          2D

 12 11  0  0  0  0  0  0  0  0999 V2000
    5.8500   -5.2042    0.0000 C   0  0  0  0  0  0  0  0  0  0  0  0
    6.5000   -5.5792    0.0000 C   0  0  0  0  0  0  0  0  0  0  0  0
    5.8500   -4.4417    0.0000 C   0  0  0  0  0  0  0  0  0  0  0  0
    5.1917   -4.0667    0.0000 N   0  0  0  0  0  0  0  0  0  0  0  0
    5.1917   -5.5792    0.0000 C   0  0  0  0  0  0  0  0  0  0  0  0
    6.5000   -6.3292    0.0000 O   0  0  0  0  0  0  0  0  0  0  0  0
    7.1500   -5.2042    0.0000 O   0  0  0  0  0  0  0  0  0  0  0  0
    4.5500   -5.2042    0.0000 C   0  0  0  0  0  0  0  0  0  0  0  0
    6.6042   -3.6792    0.0000 Br  0  0  0  0  0  0  0  0  0  0  0  0
    4.5500   -4.4417    0.0000 C   0  0  0  0  0  0  0  0  0  0  0  0
    5.1917   -3.3167    0.0000 C   0  0  0  0  0  0  0  0  0  0  0  0
    7.8000   -5.5792    0.0000 C   0  0  0  0  0  0  0  0  0  0  0  0
  2  1  1  0
  3  1  1  0
  4  3  1  0
  5  1  2  0
  6  2  2  0
  7  2  1  0
  8  5  1  0
 10  8  1  0
 11  4  1  0
 12  7  1  0
 10  4  1  0
M  END
>  <ID>  (226) 


>  <MOLENAME>  (226) 
ARECOLINE HYDROBROMIDE

>  <therap>  (226) 
anthelmintic (Cestodes), hypotensive, cathartic

>  <ref>  (226) 
Ber 21: 3404 (1888); Biochem J 122: 503 (1971)

>  <cas#>  (226) 
300-08-3, 63-75-2 [arecoline]

>  <source>  (226) 
betel nuts (Arica catechu)

>  <status>  (226) 
NF-XIII

>  <tradename>  (226) 
nan

>  <SMILES>  (226) 
COC(=O)C1=CCCN(C)C1

>  <standardized_failed>  (226) 
False

$$$$

     RDKit          2D

 81 84  0  0  0  0  0  0  0  0999 V2000
   -2.0208   -0.6792    0.0000 C   0  0  0  0  0  0  0  0  0  0  0  0
   -2.0333   -4.8042    0.0000 C   0  0  0  0  0  0  0  0  0  0  0  0
   -1.3208   -5.2250    0.0000 C   0  0  0  0  0  0  0  0  0  0  0  0
   -1.3333   -6.0542    0.0000 C   0  0  0  0  0  0  0  0  0  0  0  0
   -3.4458   -1.5125    0.0000 C   0  0  0  0  0  0  0  0  0  0  0  0
   -2.7250   -1.9167    0.0000 C   0  0  0  0  0  0  0  0  0  0  0  0
   -2.7458   -5.2167    0.0000 O   0  0  0  0  0  0  0  0  0  0  0  0
   -2.0125   -1.5042    0.0000 O   0  0  0  0  0  0  0  0  0  0  0  0
   -2.0458   -6.4542    0.0000 C   0  0  0  0  0  0  0  0  0  0  0  0
   -3.4458   -0.6875    0.0000 C   0  0  0  0  0  0  0  0  0  0  0  0
   -2.7333   -0.2750    0.0000 C   0  0  0  0  0  0  0  0  0  0  0  0
    7.9542   -1.4792    0.0000 O   0  0  0  0  0  0  0  0  0  0  0  0
    7.9542   -0.6542    0.0000 C   0  0  0  0  0  0  0  0  0  0  0  0
   -2.7583   -6.0375    0.0000 C   0  0  0  0  0  0  0  0  0  0  0  0
   -4.1583   -1.9250    0.0000 C   0  0  0  0  0  0  0  0  0  0  0  0
    8.6750   -1.8875    0.0000 C   0  0  0  0  0  0  0  0  0  0  0  0
   -1.3083   -0.2667    0.0000 C   0  0  0  0  0  0  0  0  0  0  0  0
   12.9500   -1.8667    0.0000 C   0  0  0  0  0  0  0  0  0  0  0  0
   -2.0208   -3.9875    0.0000 O   0  0  0  0  0  0  0  0  0  0  0  0
    7.2417   -0.2417    0.0000 C   0  0  0  0  0  0  0  0  0  0  0  0
   -2.7333   -2.7500    0.0000 C   0  0  0  0  0  0  0  0  0  0  0  0
    5.1042   -0.6625    0.0000 C   0  0  0  0  0  0  0  0  0  0  0  0
   12.2375   -1.4625    0.0000 C   0  0  0  0  0  0  0  0  0  0  0  0
   13.6625   -1.4542    0.0000 C   0  0  0  0  0  0  0  0  0  0  0  0
   -2.0208   -3.1625    0.0000 C   0  0  0  0  0  0  0  0  0  0  0  0
    5.8167   -0.2500    0.0000 C   0  0  0  0  0  0  0  0  0  0  0  0
    4.3917   -0.2542    0.0000 C   0  0  0  0  0  0  0  0  0  0  0  0
   -0.5958   -0.6792    0.0000 C   0  0  0  0  0  0  0  0  0  0  0  0
    6.5292   -0.6542    0.0000 C   0  0  0  0  0  0  0  0  0  0  0  0
    8.6667   -0.2375    0.0000 O   0  0  0  0  0  0  0  0  0  0  0  0
    8.6792   -2.7125    0.0000 C   0  0  0  0  0  0  0  0  0  0  0  0
   -4.1583   -2.7500    0.0000 O   0  0  0  0  0  0  0  0  0  0  0  0
    0.1167   -0.2667    0.0000 C   0  0  0  0  0  0  0  0  0  0  0  0
    2.9667   -0.2542    0.0000 C   0  0  0  0  0  0  0  0  0  0  0  0
    1.5417   -0.2625    0.0000 C   0  0  0  0  0  0  0  0  0  0  0  0
   12.9500   -2.6917    0.0000 O   0  0  0  0  0  0  0  0  0  0  0  0
    3.6792   -0.6667    0.0000 C   0  0  0  0  0  0  0  0  0  0  0  0
    0.8292   -0.6750    0.0000 C   0  0  0  0  0  0  0  0  0  0  0  0
    2.2542   -0.6667    0.0000 C   0  0  0  0  0  0  0  0  0  0  0  0
   -0.6208   -6.4667    0.0000 N   0  0  0  0  0  0  0  0  0  0  0  0
    5.1042   -3.1625    0.0000 C   0  0  0  0  0  0  0  0  0  0  0  0
    5.8167   -2.7500    0.0000 C   0  0  0  0  0  0  0  0  0  0  0  0
    6.5292   -3.1625    0.0000 C   0  0  0  0  0  0  0  0  0  0  0  0
    0.1167   -2.7500    0.0000 C   0  0  0  0  0  0  0  0  0  0  0  0
    0.8292   -3.1625    0.0000 C   0  0  0  0  0  0  0  0  0  0  0  0
    1.5417   -2.7500    0.0000 C   0  0  0  0  0  0  0  0  0  0  0  0
    2.2542   -3.1625    0.0000 C   0  0  0  0  0  0  0  0  0  0  0  0
    2.9667   -2.7500    0.0000 C   0  0  0  0  0  0  0  0  0  0  0  0
    3.6792   -3.1625    0.0000 C   0  0  0  0  0  0  0  0  0  0  0  0
    4.3917   -2.7500    0.0000 C   0  0  0  0  0  0  0  0  0  0  0  0
    5.1042   -1.4875    0.0000 O   0  0  0  0  0  0  0  0  0  0  0  0
    7.2417   -2.7500    0.0000 C   0  0  0  0  0  0  0  0  0  0  0  0
   -0.5958   -3.1625    0.0000 C   0  0  0  0  0  0  0  0  0  0  0  0
   -1.3083   -2.7500    0.0000 C   0  0  0  0  0  0  0  0  0  0  0  0
    7.9542   -3.1625    0.0000 C   0  0  0  0  0  0  0  0  0  0  0  0
   -2.0208    0.1458    0.0000 O   0  0  0  0  0  0  0  0  0  0  0  0
    9.3875   -1.4667    0.0000 C   0  0  0  0  0  0  0  0  0  0  0  0
   -0.6000   -4.8250    0.0000 O   0  0  0  0  0  0  0  0  0  0  0  0
   14.3750   -1.8667    0.0000 C   0  0  0  0  0  0  0  0  0  0  0  0
   13.6542   -0.6375    0.0000 C   0  0  0  0  0  0  0  0  0  0  0  0
   10.1000   -1.8792    0.0000 C   0  0  0  0  0  0  0  0  0  0  0  0
   -2.0500   -7.2792    0.0000 O   0  0  0  0  0  0  0  0  0  0  0  0
   -4.1583   -0.2792    0.0000 O   0  0  0  0  0  0  0  0  0  0  0  0
   15.0917   -0.6292    0.0000 C   0  0  0  0  0  0  0  0  0  0  0  0
   -4.8708   -1.5125    0.0000 O   0  0  0  0  0  0  0  0  0  0  0  0
   15.8042   -0.2167    0.0000 N   0  0  0  0  0  0  0  0  0  0  0  0
   15.0917   -1.4542    0.0000 C   0  0  0  0  0  0  0  0  0  0  0  0
   14.3667   -0.2167    0.0000 C   0  0  0  0  0  0  0  0  0  0  0  0
   11.5250   -1.8750    0.0000 C   0  0  0  0  0  0  0  0  0  0  0  0
   10.8125   -1.4667    0.0000 C   0  0  0  0  0  0  0  0  0  0  0  0
   -0.5958   -1.5042    0.0000 O   0  0  0  0  0  0  0  0  0  0  0  0
    6.5292   -1.4792    0.0000 O   0  0  0  0  0  0  0  0  0  0  0  0
    0.8292   -1.5000    0.0000 O   0  0  0  0  0  0  0  0  0  0  0  0
    2.2542   -1.4917    0.0000 O   0  0  0  0  0  0  0  0  0  0  0  0
    3.6792   -1.4917    0.0000 O   0  0  0  0  0  0  0  0  0  0  0  0
   11.5250   -2.7000    0.0000 O   0  0  0  0  0  0  0  0  0  0  0  0
   -3.4708   -6.4417    0.0000 C   0  0  0  0  0  0  0  0  0  0  0  0
    9.3917   -3.1167    0.0000 C   0  0  0  0  0  0  0  0  0  0  0  0
   16.5167   -0.6292    0.0000 C   0  0  0  0  0  0  0  0  0  0  0  0
    9.3792   -0.6417    0.0000 C   0  0  0  0  0  0  0  0  0  0  0  0
   -5.5833   -1.9292    0.0000 C   0  0  0  0  0  0  0  0  0  0  0  0
  2 19  1  1
  3  2  1  0
  4  3  1  0
  5 10  1  0
  6  8  1  0
  7  2  1  0
  8  1  1  0
  9 14  1  0
 10 11  1  0
 11  1  1  0
 12 13  1  0
 13 20  1  0
 14  7  1  0
 15  5  1  0
 16 12  1  0
 17  1  1  0
 18 23  1  0
 19 25  1  0
 20 29  1  0
 21  6  1  0
 22 27  1  0
 23 69  1  0
 24 18  1  0
 25 21  1  0
 26 22  1  0
 27 37  1  0
 28 17  1  0
 29 26  1  0
 30 13  2  0
 31 16  1  0
 32 15  2  0
 33 28  1  0
 34 39  1  0
 35 38  1  0
 36 18  2  0
 37 34  1  0
 38 33  1  0
 39 35  1  0
  4 40  1  1
 41 50  2  0
 42 41  1  0
 43 42  2  0
 44 53  1  0
 45 44  2  0
 46 45  1  0
 47 46  2  0
 48 47  1  0
 49 48  2  0
 50 49  1  0
 51 22  2  0
 52 43  1  0
 53 54  2  0
 54 25  1  0
 55 31  1  0
 56  1  1  0
 57 16  1  0
  3 58  1  1
 59 24  2  0
 60 24  1  0
 61 57  1  0
  9 62  1  6
 63 10  1  0
 64 68  1  0
 65 15  1  0
 66 64  1  0
 67 59  1  0
 68 60  2  0
 69 70  1  0
 70 61  1  0
 71 28  1  0
 72 29  1  0
 73 38  1  0
 74 39  1  0
 75 37  1  0
 76 69  1  0
 14 77  1  1
 78 31  1  0
 79 66  1  0
 80 57  1  0
 81 65  1  0
  5  6  1  0
  9  4  1  0
 55 52  2  0
 64 67  2  0
M  END
>  <ID>  (227) 


>  <MOLENAME>  (227) 
MEPARTRICIN

>  <therap>  (227) 
antifungal, antiprotozoal

>  <ref>  (227) 
Acta Haematol 69:409 (1983); J Antimicrob Chemother 16:169 (1985); Urology 63:13 (2004)

>  <cas#>  (227) 
11121-32-7

>  <source>  (227) 
Streptomyces aureofaciens; SPA-S-160, SN-654

>  <status>  (227) 
USAN, INN, BAN

>  <tradename>  (227) 
nan

>  <SMILES>  (227) 
CNc1ccc(C(=O)CC(O)CCC(C)C2OC(=O)CC(O)CC(=O)CC(O)CC(O)CC(O)CC(O)CC3(O)CC(O)C(C(=O)OC)C(CC(O[C@@H]4O[C@H](C)[C@@H](O)[C@H](N)[C@@H]4O)/C=C/C=C/C=C/C=C/C=C/C=C/C=C/C2C)O3)cc1

>  <standardized_failed>  (227) 
False

$$$$

     RDKit          2D

 26 28  0  0  0  0  0  0  0  0999 V2000
    6.1042   -4.2167    0.0000 C   0  0  0  0  0  0  0  0  0  0  0  0
    6.2750   -3.4125    0.0000 N   0  0  0  0  0  0  0  0  0  0  0  0
    6.8250   -4.6292    0.0000 N   0  0  0  0  0  0  0  0  0  0  0  0
    5.3917   -4.6375    0.0000 S   0  0  0  0  0  0  0  0  0  0  0  0
    3.9667   -4.6417    0.0000 C   0  0  0  0  0  0  0  0  0  0  0  0
    7.0917   -3.3250    0.0000 C   0  0  0  0  0  0  0  0  0  0  0  0
    4.6792   -4.2292    0.0000 C   0  0  0  0  0  0  0  0  0  0  0  0
    3.2500   -4.2292    0.0000 C   0  0  0  0  0  0  0  0  0  0  0  0
    7.4292   -4.0667    0.0000 C   0  0  0  0  0  0  0  0  0  0  0  0
    7.5750   -2.6625    0.0000 C   0  0  0  0  0  0  0  0  0  0  0  0
    3.9667   -5.4750    0.0000 N   0  0  0  0  0  0  0  0  0  0  0  0
    9.7000   -2.0750    0.0000 C   0  0  0  0  0  0  0  0  0  0  0  0
    2.5375   -4.6500    0.0000 C   0  0  0  0  0  0  0  0  0  0  0  0
    5.3917   -5.4625    0.0000 O   0  0  0  0  0  0  0  0  0  0  0  0
    8.3917   -2.7417    0.0000 C   0  0  0  0  0  0  0  0  0  0  0  0
    8.8750   -2.0750    0.0000 O   0  0  0  0  0  0  0  0  0  0  0  0
    8.2417   -4.1625    0.0000 C   0  0  0  0  0  0  0  0  0  0  0  0
   10.1125   -2.7875    0.0000 F   0  0  0  0  0  0  0  0  0  0  0  0
   10.1042   -1.3542    0.0000 F   0  0  0  0  0  0  0  0  0  0  0  0
    3.2417   -3.4042    0.0000 O   0  0  0  0  0  0  0  0  0  0  0  0
    3.2500   -5.8875    0.0000 C   0  0  0  0  0  0  0  0  0  0  0  0
    8.7292   -3.4917    0.0000 C   0  0  0  0  0  0  0  0  0  0  0  0
    2.5375   -5.4750    0.0000 C   0  0  0  0  0  0  0  0  0  0  0  0
    1.8250   -4.2375    0.0000 O   0  0  0  0  0  0  0  0  0  0  0  0
    3.9625   -2.9917    0.0000 C   0  0  0  0  0  0  0  0  0  0  0  0
    1.8250   -3.4125    0.0000 C   0  0  0  0  0  0  0  0  0  0  0  0
  2  1  2  0
  3  1  1  0
  4  1  1  0
  5  7  1  0
  6  2  1  0
  7  4  1  0
  8  5  2  0
  9  3  1  0
 10  6  2  0
 11  5  1  0
 12 16  1  0
 13  8  1  0
 14  4  2  0
 15 10  1  0
 16 15  1  0
 17  9  2  0
 18 12  1  0
 19 12  1  0
 20  8  1  0
 21 11  2  0
 22 17  1  0
 23 21  1  0
 24 13  1  0
 25 20  1  0
 26 24  1  0
  6  9  1  0
 22 15  2  0
 13 23  2  0
M  END
>  <ID>  (228) 


>  <MOLENAME>  (228) 
PANTOPRAZOLE

>  <therap>  (228) 
proton pump inhibitor, gastric acid release inhibitor, antiulcer

>  <ref>  (228) 
Gastroenterology 118:696 (2000); Am J Health Syst Pharm 58:999 (2001)

>  <cas#>  (228) 
102625-70-7

>  <source>  (228) 
synthetic; SK&F-96022, BY-1023

>  <status>  (228) 
USAN, INN, BAN

>  <tradename>  (228) 
PROTONIX

>  <SMILES>  (228) 
COc1ccnc(C[S+]([O-])c2nc3cc(OC(F)F)ccc3[nH]2)c1OC

>  <standardized_failed>  (228) 
False

$$$$

     RDKit          2D

 35 37  0  0  0  0  0  0  0  0999 V2000
    5.2167   -4.6750    0.0000 C   0  0  0  0  0  0  0  0  0  0  0  0
    5.2167   -5.4250    0.0000 C   0  0  0  0  0  0  0  0  0  0  0  0
    8.5917   -6.0750    0.0000 C   0  0  0  0  0  0  0  0  0  0  0  0
    7.0917   -6.0750    0.0000 N   0  0  0  0  0  0  0  0  0  0  0  0
    5.9667   -5.4250    0.0000 C   0  0  0  0  0  0  0  0  0  0  0  0
    5.8667   -4.3000    0.0000 N   0  0  0  0  0  0  0  0  0  0  0  0
    8.2167   -6.7167    0.0000 C   0  0  0  0  0  0  0  0  0  0  0  0
    8.2167   -5.4250    0.0000 C   0  0  0  0  0  0  0  0  0  0  0  0
    8.5917   -5.3250    0.0000 C   0  0  0  0  0  0  0  0  0  0  0  0
    4.5667   -4.3042    0.0000 O   0  0  0  0  0  0  0  0  0  0  0  0
    5.2167   -6.1750    0.0000 C   0  0  0  0  0  0  0  0  0  0  0  0
    4.4667   -5.4250    0.0000 C   0  0  0  0  0  0  0  0  0  0  0  0
    6.3417   -6.0750    0.0000 C   0  0  0  0  0  0  0  0  0  0  0  0
    7.4667   -5.4250    0.0000 C   0  0  0  0  0  0  0  0  0  0  0  0
    7.4667   -6.7167    0.0000 C   0  0  0  0  0  0  0  0  0  0  0  0
    9.2417   -4.9500    0.0000 C   0  0  0  0  0  0  0  0  0  0  0  0
    7.9417   -4.9500    0.0000 C   0  0  0  0  0  0  0  0  0  0  0  0
    9.3417   -6.0750    0.0000 O   0  0  0  0  0  0  0  0  0  0  0  0
    8.5917   -3.8250    0.0000 C   0  0  0  0  0  0  0  0  0  0  0  0
    7.9417   -4.1917    0.0000 C   0  0  0  0  0  0  0  0  0  0  0  0
    9.2417   -4.1917    0.0000 C   0  0  0  0  0  0  0  0  0  0  0  0
    8.6042   -3.0750    0.0000 Cl  0  0  0  0  0  0  0  0  0  0  0  0
    7.4167   -7.4292    0.0000 Cl  0  0  0  0  0  0  0  0  0  0  0  0
    5.8667   -3.5500    0.0000 C   0  0  0  0  0  0  0  0  0  0  0  0
    6.5167   -4.6750    0.0000 C   0  0  0  0  0  0  0  0  0  0  0  0
    4.0917   -4.7792    0.0000 C   0  0  0  0  0  0  0  0  0  0  0  0
    4.5667   -6.5500    0.0000 C   0  0  0  0  0  0  0  0  0  0  0  0
    5.8667   -6.5500    0.0000 C   0  0  0  0  0  0  0  0  0  0  0  0
    4.0917   -6.0750    0.0000 C   0  0  0  0  0  0  0  0  0  0  0  0
    4.5667   -7.3000    0.0000 C   0  0  0  0  0  0  0  0  0  0  0  0
    5.8667   -7.3000    0.0000 C   0  0  0  0  0  0  0  0  0  0  0  0
    3.3417   -4.7792    0.0000 C   0  0  0  0  0  0  0  0  0  0  0  0
    3.3417   -6.0750    0.0000 C   0  0  0  0  0  0  0  0  0  0  0  0
    5.2167   -7.6750    0.0000 C   0  0  0  0  0  0  0  0  0  0  0  0
    2.9667   -5.4250    0.0000 C   0  0  0  0  0  0  0  0  0  0  0  0
  2  1  1  0
  3  7  1  0
  4 13  1  0
  5  2  1  0
  6  1  1  0
  7 15  1  0
  8 14  1  0
  9  3  1  0
 10  1  2  0
 11  2  1  0
 12  2  1  0
 13  5  1  0
 14  4  1  0
 15  4  1  0
 16  9  2  0
 17  9  1  0
 18  3  1  0
 19 20  1  0
 20 17  2  0
 21 16  1  0
 22 19  1  0
 24  6  1  0
 25  6  1  0
 26 12  2  0
 27 11  2  0
 28 11  1  0
 29 12  1  0
 30 27  1  0
 31 28  2  0
 32 26  1  0
 33 29  2  0
 34 31  1  0
 35 32  2  0
 33 35  1  0
 30 34  2  0
  8  3  1  0
 19 21  2  0
M  END
>  <ID>  (229) 


>  <MOLENAME>  (229) 
LOPERAMIDE HYDROCHLORIDE

>  <therap>  (229) 
Ca channel blocker

>  <ref>  (229) 
Drugs (1978), 15(1), 33-52; Arzneim. Forsch. (1974), 24(10), 1633-6; J. Med. Chem. (1973), 16(7), 782-6

>  <cas#>  (229) 
34552-83-5, 53179-11-6 [loperamide]

>  <source>  (229) 
synthetic; R-18553

>  <status>  (229) 
USP, INN, BAN, JAN

>  <tradename>  (229) 
IMODIUM

>  <SMILES>  (229) 
CN(C)C(=O)C(CCN1CCC(O)(c2ccc(Cl)cc2)CC1)(c1ccccc1)c1ccccc1

>  <standardized_failed>  (229) 
False

$$$$

     RDKit          2D

 30 34  0  0  0  0  0  0  0  0999 V2000
    7.0917   -1.6417    0.0000 C   0  0  0  0  0  0  0  0  0  0  0  0
    5.6542   -2.4792    0.0000 C   0  0  0  0  0  0  0  0  0  0  0  0
    7.1000   -2.4792    0.0000 C   0  0  0  0  0  0  0  0  0  0  0  0
    6.3667   -2.8917    0.0000 C   0  0  0  0  0  0  0  0  0  0  0  0
    5.6542   -1.6417    0.0000 C   0  0  0  0  0  0  0  0  0  0  0  0
    6.3750   -1.2250    0.0000 C   0  0  0  0  0  0  0  0  0  0  0  0
    6.3667   -3.7167    0.0000 C   0  0  0  0  0  0  0  0  0  0  0  0
    7.8875   -2.7292    0.0000 C   0  0  0  0  0  0  0  0  0  0  0  0
    4.9417   -2.8875    0.0000 C   0  0  0  0  0  0  0  0  0  0  0  0
    4.9417   -1.2292    0.0000 C   0  0  0  0  0  0  0  0  0  0  0  0
    6.3667   -5.3625    0.0000 C   0  0  0  0  0  0  0  0  0  0  0  0
    8.3750   -2.0542    0.0000 O   0  0  0  0  0  0  0  0  0  0  0  0
    7.8875   -1.3875    0.0000 C   0  0  0  0  0  0  0  0  0  0  0  0
    5.6500   -4.9417    0.0000 C   0  0  0  0  0  0  0  0  0  0  0  0
    7.0792   -4.9417    0.0000 C   0  0  0  0  0  0  0  0  0  0  0  0
    4.2292   -1.6500    0.0000 C   0  0  0  0  0  0  0  0  0  0  0  0
    4.2292   -2.4750    0.0000 C   0  0  0  0  0  0  0  0  0  0  0  0
    5.6542   -4.1250    0.0000 C   0  0  0  0  0  0  0  0  0  0  0  0
    7.0792   -4.1250    0.0000 C   0  0  0  0  0  0  0  0  0  0  0  0
    3.4417   -2.7292    0.0000 O   0  0  0  0  0  0  0  0  0  0  0  0
    3.4417   -1.3917    0.0000 O   0  0  0  0  0  0  0  0  0  0  0  0
    2.9625   -2.0625    0.0000 C   0  0  0  0  0  0  0  0  0  0  0  0
    8.1417   -3.5167    0.0000 O   0  0  0  0  0  0  0  0  0  0  0  0
    6.4167   -0.3750    0.0000 O   0  0  0  0  0  0  0  0  0  0  0  0
    6.3667   -6.1875    0.0000 O   0  0  0  0  0  0  0  0  0  0  0  0
    4.9375   -5.3542    0.0000 O   0  0  0  0  0  0  0  0  0  0  0  0
    7.8000   -5.3542    0.0000 O   0  0  0  0  0  0  0  0  0  0  0  0
    5.6500   -6.6000    0.0000 C   0  0  0  0  0  0  0  0  0  0  0  0
    8.5125   -4.9417    0.0000 C   0  0  0  0  0  0  0  0  0  0  0  0
    4.2250   -4.9417    0.0000 C   0  0  0  0  0  0  0  0  0  0  0  0
  2  5  2  0
  3  1  1  0
  4  3  1  0
  5  6  1  0
  1  6  1  0
  4  7  1  6
  3  8  1  6
  9  2  1  0
 10  5  1  0
 11 15  2  0
 12 13  1  0
  1 13  1  1
 14 18  2  0
 15 19  1  0
 16 10  2  0
 17 16  1  0
 18  7  1  0
 19  7  2  0
 20 17  1  0
 21 16  1  0
 22 21  1  0
 23  8  2  0
  6 24  1  6
 25 11  1  0
 26 14  1  0
 27 15  1  0
 28 25  1  0
 29 27  1  0
 30 26  1  0
 12  8  1  0
  4  2  1  0
 17  9  2  0
 11 14  1  0
 20 22  1  0
M  END
>  <ID>  (230) 


>  <MOLENAME>  (230) 
PODOFILOX

>  <therap>  (230) 
antineoplastic, inhibits microtubule assembly, and human DNA topoisomerase II; antimitotic agent

>  <ref>  (230) 
JACS 73: 2909 (1951); 75: 1308 (1953); J Med Chem 32: 604 (1989); Pharmacol Ther 59: 163 (1993); J Prot Chem 17: 663 (1998)

>  <cas#>  (230) 
518-28-5

>  <source>  (230) 
Podophylum peltatum; podophylotoxin

>  <status>  (230) 
USAN, BAN

>  <tradename>  (230) 
CONDYLOX

>  <SMILES>  (230) 
COc1c(OC)c(OC)cc([C@@H]2c3c(cc4OCOc4c3)[C@H](O)[C@H]3COC(=O)[C@H]23)c1

>  <standardized_failed>  (230) 
False

$$$$

     RDKit          2D

 14 14  0  0  0  0  0  0  0  0999 V2000
    0.7167    2.0875    0.0000 C   0  0  0  0  0  0  0  0  0  0  0  0
   -1.1583    1.4458    0.0000 C   0  0  0  0  0  0  0  0  0  0  0  0
    1.0917    1.4458    0.0000 C   0  0  0  0  0  0  0  0  0  0  0  0
   -1.5333    0.7958    0.0000 C   0  0  0  0  0  0  0  0  0  0  0  0
   -0.4083    1.4458    0.0000 C   0  0  0  0  0  0  0  0  0  0  0  0
   -0.0333    0.7958    0.0000 C   0  0  0  0  0  0  0  0  0  0  0  0
    0.7167    0.7958    0.0000 C   0  0  0  0  0  0  0  0  0  0  0  0
   -0.0333    2.0875    0.0000 O   0  0  0  0  0  0  0  0  0  0  0  0
   -1.1583    0.1458    0.0000 C   0  0  0  0  0  0  0  0  0  0  0  0
    1.8417    1.4458    0.0000 N   0  0  0  0  0  0  0  0  0  0  0  0
    1.0917    2.7375    0.0000 O   0  0  0  0  0  0  0  0  0  0  0  0
   -0.4083    0.1458    0.0000 C   0  0  0  0  0  0  0  0  0  0  0  0
   -1.5458    2.0958    0.0000 O   0  0  0  0  0  0  0  0  0  0  0  0
   -2.2833    0.7958    0.0000 O   0  0  0  0  0  0  0  0  0  0  0  0
  2  5  2  0
  3  1  1  0
  4  9  2  0
  5  6  1  0
  6  7  1  0
  7  3  1  0
  8  1  2  0
  9 12  1  0
  3 10  1  1
 11  1  1  0
 12  6  2  0
 13  2  1  0
 14  4  1  0
  4  2  1  0
M  END
>  <ID>  (231) 


>  <MOLENAME>  (231) 
LEVODOPA

>  <therap>  (231) 
antiparkinsonian

>  <ref>  (231) 
Expert Opin. Drug Metab. Toxicol. (2011), 7(7), 847-855; Clin. Pharmacol. Ther. (1970), 11(6), 789-801; Biochem. Med. (1970), 4(3-4), 357-9

>  <cas#>  (231) 
59-92-7

>  <source>  (231) 
Vicia faba seedlings, Sarothamnus spp, & other palnts

>  <status>  (231) 
USP, INN, BAN, JAN

>  <tradename>  (231) 
LARADOPA

>  <SMILES>  (231) 
N[C@@H](Cc1ccc(O)c(O)c1)C(=O)O

>  <standardized_failed>  (231) 
False

$$$$

     RDKit          2D

 23 26  0  0  0  0  0  0  0  0999 V2000
    2.8167   -1.8125    0.0000 C   0  0  0  0  0  0  0  0  0  0  0  0
    4.9750   -0.5875    0.0000 C   0  0  0  0  0  0  0  0  0  0  0  0
    2.8125   -2.6375    0.0000 C   0  0  0  0  0  0  0  0  0  0  0  0
    3.5292   -1.4000    0.0000 C   0  0  0  0  0  0  0  0  0  0  0  0
    4.9542   -1.4167    0.0000 C   0  0  0  0  0  0  0  0  0  0  0  0
    4.2417   -1.8167    0.0000 C   0  0  0  0  0  0  0  0  0  0  0  0
    5.7625   -0.3417    0.0000 C   0  0  0  0  0  0  0  0  0  0  0  0
    2.1042   -3.0417    0.0000 C   0  0  0  0  0  0  0  0  0  0  0  0
    6.5542   -0.1292    0.0000 C   0  0  0  0  0  0  0  0  0  0  0  0
    4.2625   -0.1667    0.0000 C   0  0  0  0  0  0  0  0  0  0  0  0
    3.5375   -0.5667    0.0000 C   0  0  0  0  0  0  0  0  0  0  0  0
    2.1042   -1.3917    0.0000 C   0  0  0  0  0  0  0  0  0  0  0  0
    4.2417   -2.6417    0.0000 C   0  0  0  0  0  0  0  0  0  0  0  0
    5.7417   -1.6792    0.0000 C   0  0  0  0  0  0  0  0  0  0  0  0
    7.3542    0.0875    0.0000 C   0  0  0  0  0  0  0  0  0  0  0  0
    3.5250   -3.0500    0.0000 C   0  0  0  0  0  0  0  0  0  0  0  0
    1.3917   -2.6375    0.0000 C   0  0  0  0  0  0  0  0  0  0  0  0
    6.2375   -1.0167    0.0000 C   0  0  0  0  0  0  0  0  0  0  0  0
    0.6792   -3.0500    0.0000 O   0  0  0  0  0  0  0  0  0  0  0  0
    1.3917   -1.8125    0.0000 C   0  0  0  0  0  0  0  0  0  0  0  0
    5.7542    0.4833    0.0000 O   0  0  0  0  0  0  0  0  0  0  0  0
    2.8125   -0.9875    0.0000 C   0  0  0  0  0  0  0  0  0  0  0  0
    4.9667    0.2375    0.0000 C   0  0  0  0  0  0  0  0  0  0  0  0
  2 10  1  0
  3  1  1  0
  4  1  1  0
  5  6  1  0
  6  4  1  0
  7  2  1  0
  8  3  2  0
  9  7  1  0
 10 11  1  0
 11  4  1  0
 12  1  1  0
 13  6  1  0
 14  5  1  0
 15  9  3  0
 16  3  1  0
 17 20  1  0
 18 14  1  0
 19 17  2  0
 20 12  1  0
 21  7  1  0
 22  1  1  0
 23  2  1  0
 13 16  1  0
 17  8  1  0
  2  5  1  0
  7 18  1  0
M  END
>  <ID>  (232) 


>  <MOLENAME>  (232) 
ETHISTERONE

>  <therap>  (232) 
progestogen

>  <ref>  (232) 
Pharmacotherapy (2003), 23(12), 1573-91; J. Med. Chem. (1967), 10(3), 446-51; Fertil. Steril. (1967), 18(2), 238-56

>  <cas#>  (232) 
434-03-7

>  <source>  (232) 
synthetic; NSC-9565

>  <status>  (232) 
NF-XIII, INN, BAN

>  <tradename>  (232) 
nan

>  <SMILES>  (232) 
C#CC1(O)CCC2C3CCC4=CC(=O)CCC4(C)C3CCC21C

>  <standardized_failed>  (232) 
False

$$$$

     RDKit          2D

 26 29  0  0  0  0  0  0  0  0999 V2000
    7.5000   -3.4125    0.0000 C   0  0  0  0  0  0  0  0  0  0  0  0
    6.7792   -2.1750    0.0000 N   0  0  0  0  0  0  0  0  0  0  0  0
    6.0667   -3.4167    0.0000 C   0  0  0  0  0  0  0  0  0  0  0  0
    6.0667   -2.5917    0.0000 C   0  0  0  0  0  0  0  0  0  0  0  0
    6.7875   -3.8292    0.0000 C   0  0  0  0  0  0  0  0  0  0  0  0
    7.4917   -2.5792    0.0000 C   0  0  0  0  0  0  0  0  0  0  0  0
    5.3542   -2.1792    0.0000 C   0  0  0  0  0  0  0  0  0  0  0  0
    4.6417   -2.5917    0.0000 C   0  0  0  0  0  0  0  0  0  0  0  0
    6.7750   -1.3500    0.0000 C   0  0  0  0  0  0  0  0  0  0  0  0
    5.3542   -3.8292    0.0000 C   0  0  0  0  0  0  0  0  0  0  0  0
    3.9292   -2.1792    0.0000 N   0  0  0  0  0  0  0  0  0  0  0  0
    8.2167   -3.8167    0.0000 C   0  0  0  0  0  0  0  0  0  0  0  0
    4.6417   -3.4167    0.0000 C   0  0  0  0  0  0  0  0  0  0  0  0
    6.3542   -0.6417    0.0000 C   0  0  0  0  0  0  0  0  0  0  0  0
    7.1792   -0.6292    0.0000 C   0  0  0  0  0  0  0  0  0  0  0  0
    2.5042   -1.3542    0.0000 N   0  0  0  0  0  0  0  0  0  0  0  0
    6.7875   -4.6542    0.0000 O   0  0  0  0  0  0  0  0  0  0  0  0
    3.2167   -2.5917    0.0000 C   0  0  0  0  0  0  0  0  0  0  0  0
    3.9292   -1.3542    0.0000 C   0  0  0  0  0  0  0  0  0  0  0  0
    8.2167   -4.6417    0.0000 O   0  0  0  0  0  0  0  0  0  0  0  0
    2.5000   -2.1792    0.0000 C   0  0  0  0  0  0  0  0  0  0  0  0
    3.2167   -0.9417    0.0000 C   0  0  0  0  0  0  0  0  0  0  0  0
    3.9250   -3.8292    0.0000 F   0  0  0  0  0  0  0  0  0  0  0  0
    8.9292   -3.4042    0.0000 O   0  0  0  0  0  0  0  0  0  0  0  0
    1.7917   -0.9375    0.0000 C   0  0  0  0  0  0  0  0  0  0  0  0
    1.7917   -0.1125    0.0000 C   0  0  0  0  0  0  0  0  0  0  0  0
  2  6  1  0
  3  5  1  0
  4  2  1  0
  5  1  1  0
  6  1  2  0
  7  4  2  0
  8  7  1  0
  9  2  1  0
 10  3  2  0
 11  8  1  0
 12  1  1  0
 13 10  1  0
 14  9  1  0
 15  9  1  0
 16 22  1  0
 17  5  2  0
 18 11  1  0
 19 11  1  0
 20 12  2  0
 21 18  1  0
 22 19  1  0
 23 13  1  0
 24 12  1  0
 25 16  1  0
 26 25  1  0
  3  4  1  0
 15 14  1  0
 13  8  2  0
 21 16  1  0
M  END
>  <ID>  (233) 


>  <MOLENAME>  (233) 
ENROFLOXACIN

>  <therap>  (233) 
antibacterial

>  <ref>  (233) 
Tierarztl. Praxis (1991), 19(1), 14-20; Antimicrob. Agents Chemother. (1990), 34(3), 496-7; VMR, Vet. Med. Rev. (1987), (2), 90-9

>  <cas#>  (233) 
93106-60-6

>  <source>  (233) 
synthetic

>  <status>  (233) 
USAN, INN, BAN

>  <tradename>  (233) 
BAYTRIL

>  <SMILES>  (233) 
CCN1CCN(c2c(F)cc3c(=O)c(C(=O)O)cn(C4CC4)c3c2)CC1

>  <standardized_failed>  (233) 
False

$$$$

     RDKit          2D

 22 24  0  0  0  0  0  0  0  0999 V2000
    4.0500    0.1583    0.0000 S   0  0  0  0  0  0  0  0  0  0  0  0
    2.0375   -0.8917    0.0000 N   0  0  0  0  0  0  0  0  0  0  0  0
   -0.1750    0.2333    0.0000 N   0  0  0  0  0  0  0  0  0  0  0  0
    1.2500    0.2333    0.0000 C   0  0  0  0  0  0  0  0  0  0  0  0
    0.5375   -1.0042    0.0000 C   0  0  0  0  0  0  0  0  0  0  0  0
    1.3667   -1.4417    0.0000 C   0  0  0  0  0  0  0  0  0  0  0  0
    0.5375    0.6458    0.0000 C   0  0  0  0  0  0  0  0  0  0  0  0
   -0.1750   -0.5917    0.0000 C   0  0  0  0  0  0  0  0  0  0  0  0
    2.0500   -0.0000    0.0000 C   0  0  0  0  0  0  0  0  0  0  0  0
    1.2500   -0.5917    0.0000 C   0  0  0  0  0  0  0  0  0  0  0  0
    4.0417    0.8375    0.0000 O   0  0  0  0  0  0  0  0  0  0  0  0
    3.3667    0.1583    0.0000 O   0  0  0  0  0  0  0  0  0  0  0  0
    4.7167    0.1583    0.0000 O   0  0  0  0  0  0  0  0  0  0  0  0
    4.0417   -0.5167    0.0000 O   0  0  0  0  0  0  0  0  0  0  0  0
    2.7875   -1.3042    0.0000 C   0  0  0  0  0  0  0  0  0  0  0  0
   -0.8958    0.6458    0.0000 C   0  0  0  0  0  0  0  0  0  0  0  0
    0.5375    1.4833    0.0000 C   0  0  0  0  0  0  0  0  0  0  0  0
    1.3667   -2.1417    0.0000 C   0  0  0  0  0  0  0  0  0  0  0  0
   -0.8958    1.4833    0.0000 C   0  0  0  0  0  0  0  0  0  0  0  0
    2.8000   -2.1542    0.0000 C   0  0  0  0  0  0  0  0  0  0  0  0
    2.0792   -2.5625    0.0000 C   0  0  0  0  0  0  0  0  0  0  0  0
   -0.1750    1.8958    0.0000 C   0  0  0  0  0  0  0  0  0  0  0  0
  3  7  1  0
  4  9  1  1
  5  6  1  0
  6  2  1  0
  7  4  1  0
  5  8  1  6
  9  2  1  0
 10  4  1  0
 11  1  2  0
 12  1  2  0
 13  1  1  0
 14  1  1  0
 15  2  1  0
 16  3  1  0
  7 17  1  6
  6 18  1  1
 19 22  1  0
 20 15  1  0
 21 20  1  0
 22 17  1  0
 21 18  1  0
  5 10  1  0
  3  8  1  0
 16 19  1  0
M  END
>  <ID>  (234) 


>  <MOLENAME>  (234) 
SPARTEINE SULFATE

>  <therap>  (234) 
oxytocic

>  <ref>  (234) 
J Chem Soc 1949: 663

>  <cas#>  (234) 
6160-12-9, 299-39-8 [anhydrous]

>  <source>  (234) 
Lupinus spp and other Leguminosae

>  <status>  (234) 
USAN, BAN, JAN

>  <tradename>  (234) 
nan

>  <SMILES>  (234) 
C1CCN2C[C@H]3C[C@@H](CN4CCCC[C@H]34)[C@@H]2C1

>  <standardized_failed>  (234) 
False

$$$$

     RDKit          2D

 25 28  0  0  0  0  0  0  0  0999 V2000
    5.0875   -4.0667    0.0000 C   0  0  0  0  0  0  0  0  0  0  0  0
    7.3125   -2.7875    0.0000 C   0  0  0  0  0  0  0  0  0  0  0  0
    5.0875   -4.9250    0.0000 C   0  0  0  0  0  0  0  0  0  0  0  0
    5.8292   -3.6375    0.0000 C   0  0  0  0  0  0  0  0  0  0  0  0
    7.3125   -3.6375    0.0000 C   0  0  0  0  0  0  0  0  0  0  0  0
    6.5667   -4.0667    0.0000 C   0  0  0  0  0  0  0  0  0  0  0  0
    8.1292   -2.5125    0.0000 C   0  0  0  0  0  0  0  0  0  0  0  0
    4.3375   -5.3625    0.0000 C   0  0  0  0  0  0  0  0  0  0  0  0
    6.5667   -2.3417    0.0000 C   0  0  0  0  0  0  0  0  0  0  0  0
    5.8292   -2.7875    0.0000 C   0  0  0  0  0  0  0  0  0  0  0  0
    4.3375   -3.6375    0.0000 C   0  0  0  0  0  0  0  0  0  0  0  0
    6.5667   -4.9250    0.0000 C   0  0  0  0  0  0  0  0  0  0  0  0
    8.1292   -3.8917    0.0000 C   0  0  0  0  0  0  0  0  0  0  0  0
    8.3417   -1.7125    0.0000 O   0  0  0  0  0  0  0  0  0  0  0  0
    9.1417   -1.4917    0.0000 C   0  0  0  0  0  0  0  0  0  0  0  0
    5.8292   -5.3625    0.0000 C   0  0  0  0  0  0  0  0  0  0  0  0
    3.5917   -4.9167    0.0000 C   0  0  0  0  0  0  0  0  0  0  0  0
    8.6167   -3.2250    0.0000 C   0  0  0  0  0  0  0  0  0  0  0  0
    9.3500   -0.6917    0.0000 O   0  0  0  0  0  0  0  0  0  0  0  0
    2.8792   -5.3292    0.0000 O   0  0  0  0  0  0  0  0  0  0  0  0
    3.6000   -4.0667    0.0000 C   0  0  0  0  0  0  0  0  0  0  0  0
    5.0875   -3.2250    0.0000 C   0  0  0  0  0  0  0  0  0  0  0  0
    7.3042   -1.9625    0.0000 C   0  0  0  0  0  0  0  0  0  0  0  0
    9.7250   -2.0792    0.0000 C   0  0  0  0  0  0  0  0  0  0  0  0
   10.5167   -1.8625    0.0000 C   0  0  0  0  0  0  0  0  0  0  0  0
  2  9  1  0
  3  1  1  0
  4  1  1  0
  5  6  1  0
  6  4  1  0
  7  2  1  0
  8  3  2  0
  9 10  1  0
 10  4  1  0
 11  1  1  0
 12  6  1  0
 13  5  1  0
  7 14  1  1
 15 14  1  0
 16  3  1  0
 17 21  1  0
 18 13  1  0
 19 15  2  0
 20 17  2  0
 21 11  1  0
  1 22  1  1
  2 23  1  1
 24 15  1  0
 25 24  1  0
 16 12  1  0
  8 17  1  0
  5  2  1  0
 18  7  1  0
M  END
>  <ID>  (235) 


>  <MOLENAME>  (235) 
TESTOSTERONE PROPIONATE

>  <therap>  (235) 
androgen, antineoplastic

>  <ref>  (235) 
Biochem J 31:780 (1937); Endocrinology 26:26 (1940); J.Urol 48:778 (1942); J Clin Invest 24:89 (1945)

>  <cas#>  (235) 
57-85-2

>  <source>  (235) 
semisynthetic

>  <status>  (235) 
USP, JAN

>  <tradename>  (235) 
VIRORMONE

>  <SMILES>  (235) 
CCC(=O)O[C@H]1CCC2C3CCC4=CC(=O)CC[C@]4(C)C3CC[C@@]21C

>  <standardized_failed>  (235) 
False

$$$$

     RDKit          2D

 14 13  0  0  0  0  0  0  0  0999 V2000
    4.7250   -3.3667    0.0000 C   0  0  0  0  0  0  0  0  0  0  0  0
    3.3000   -0.8875    0.0000 N   0  0  0  0  0  0  0  0  0  0  0  0
    4.7292   -2.5417    0.0000 O   0  0  0  0  0  0  0  0  0  0  0  0
    5.4417   -3.7792    0.0000 N   0  0  0  0  0  0  0  0  0  0  0  0
    4.0125   -3.7792    0.0000 O   0  0  0  0  0  0  0  0  0  0  0  0
    4.0125   -1.3042    0.0000 C   0  0  0  0  0  0  0  0  0  0  0  0
    4.0125   -2.1292    0.0000 C   0  0  0  0  0  0  0  0  0  0  0  0
    7.7750   -2.3042    0.0000 Br  0  0  0  0  0  0  0  0  0  0  0  0
    2.5917   -1.3042    0.0000 C   0  0  0  0  0  0  0  0  0  0  0  0
    3.3000   -0.0625    0.0000 C   0  0  0  0  0  0  0  0  0  0  0  0
    2.5917   -2.1292    0.0000 C   0  0  0  0  0  0  0  0  0  0  0  0
    5.4375   -4.6042    0.0000 C   0  0  0  0  0  0  0  0  0  0  0  0
    6.1542   -3.3667    0.0000 C   0  0  0  0  0  0  0  0  0  0  0  0
    3.3000   -2.5375    0.0000 C   0  0  0  0  0  0  0  0  0  0  0  0
  2  6  2  0
  3  1  1  0
  4  1  1  0
  5  1  2  0
  6  7  1  0
  7  3  1  0
  9 11  2  0
 10  2  1  0
 11 14  1  0
 12  4  1  0
 13  4  1  0
 14  7  2  0
  9  2  1  0
M  CHG  2   2   1   8  -1
M  END
>  <ID>  (236) 


>  <MOLENAME>  (236) 
PYRIDOSTIGMINE BROMIDE

>  <therap>  (236) 
cholinergic

>  <ref>  (236) 
Fundam Appl Toxicol 1:217 (1981); J Appl Toxicol 14:317 (1994)

>  <cas#>  (236) 
101-26-8, 155-97-5 [pyridostigmine]

>  <source>  (236) 
synthetic; RO-1-5130

>  <status>  (236) 
USP, INN, BAN, JAN

>  <tradename>  (236) 
MESTINON

>  <SMILES>  (236) 
CN(C)C(=O)Oc1ccc[n+](C)c1

>  <standardized_failed>  (236) 
False

$$$$

     RDKit          2D

 24 24  0  0  0  0  0  0  0  0999 V2000
    5.7375   -5.5667    0.0000 C   0  0  0  0  0  0  0  0  0  0  0  0
    6.1500   -6.2750    0.0000 C   0  0  0  0  0  0  0  0  0  0  0  0
    4.9125   -4.1417    0.0000 N   0  0  0  0  0  0  0  0  0  0  0  0
    3.6500   -4.5625    0.0000 N   0  0  0  0  0  0  0  0  0  0  0  0
    6.1500   -4.8542    0.0000 C   0  0  0  0  0  0  0  0  0  0  0  0
    4.4333   -4.8125    0.0000 C   0  0  0  0  0  0  0  0  0  0  0  0
    5.7417   -6.9917    0.0000 C   0  0  0  0  0  0  0  0  0  0  0  0
    4.9125   -5.5625    0.0000 C   0  0  0  0  0  0  0  0  0  0  0  0
    5.7375   -4.1417    0.0000 C   0  0  0  0  0  0  0  0  0  0  0  0
    3.6500   -3.7375    0.0000 C   0  0  0  0  0  0  0  0  0  0  0  0
    4.4292   -3.4833    0.0000 C   0  0  0  0  0  0  0  0  0  0  0  0
    4.9125   -6.9917    0.0000 C   0  0  0  0  0  0  0  0  0  0  0  0
    8.2000   -5.5667    0.0000 C   0  0  0  0  0  0  0  0  0  0  0  0
    6.9750   -6.2708    0.0000 Cl  0  0  0  0  0  0  0  0  0  0  0  0
    8.6125   -6.2792    0.0000 C   0  0  0  0  0  0  0  0  0  0  0  0
    4.5000   -6.2792    0.0000 C   0  0  0  0  0  0  0  0  0  0  0  0
    6.9708   -4.8542    0.0000 O   0  0  0  0  0  0  0  0  0  0  0  0
    4.5000   -7.7083    0.0000 Cl  0  0  0  0  0  0  0  0  0  0  0  0
    7.3833   -5.5667    0.0000 C   0  0  0  0  0  0  0  0  0  0  0  0
    1.6208   -5.8042    0.0000 S   0  0  0  0  0  0  0  0  0  0  0  0
    1.6167   -4.9792    0.0000 O   0  0  0  0  0  0  0  0  0  0  0  0
    1.6167   -6.6292    0.0000 O   0  0  0  0  0  0  0  0  0  0  0  0
    0.7958   -5.8042    0.0000 O   0  0  0  0  0  0  0  0  0  0  0  0
    2.4458   -5.8042    0.0000 O   0  0  0  0  0  0  0  0  0  0  0  0
  5  1  1  0
  6  3  1  0
  7  2  2  0
  8  1  2  0
  9  5  1  0
 10 11  2  0
 11  3  1  0
 12 16  2  0
 13 19  1  0
 14  2  1  0
 15 13  2  0
 16  8  1  0
 17  5  1  0
 18 12  1  0
 19 17  1  0
  7 12  1  0
  4 10  1  0
 20 21  2  0
  2  1  1  0
 20 22  2  0
  3  9  1  0
 20 23  1  0
  4  6  2  0
 20 24  1  0
M  END
>  <ID>  (237) 


>  <MOLENAME>  (237) 
ENILCONAZOLE SULFATE

>  <therap>  (237) 
antifungal

>  <ref>  (237) 
Arzneim Forsch 31:309 (1981)

>  <cas#>  (237) 
35554-44-0

>  <source>  (237) 
synthetic; R-23979

>  <status>  (237) 
USAN, INN, BAN

>  <tradename>  (237) 
CLINAFARM

>  <SMILES>  (237) 
C=CCOC(Cn1ccnc1)c1ccc(Cl)cc1Cl

>  <standardized_failed>  (237) 
False

$$$$

     RDKit          2D

 34 35  0  0  0  0  0  0  0  0999 V2000
    6.8417   -2.2667    0.0000 C   0  0  0  0  0  0  0  0  0  0  0  0
    5.4042   -3.1042    0.0000 C   0  0  0  0  0  0  0  0  0  0  0  0
    4.6917   -3.5167    0.0000 C   0  0  0  0  0  0  0  0  0  0  0  0
    6.8417   -3.1042    0.0000 C   0  0  0  0  0  0  0  0  0  0  0  0
    7.6292   -2.0167    0.0000 C   0  0  0  0  0  0  0  0  0  0  0  0
    6.1292   -3.5167    0.0000 C   0  0  0  0  0  0  0  0  0  0  0  0
    4.6917   -4.3417    0.0000 C   0  0  0  0  0  0  0  0  0  0  0  0
    8.6375    0.2458    0.0000 P   0  0  0  0  0  0  0  0  0  0  0  0
    5.4042   -2.2667    0.0000 C   0  0  0  0  0  0  0  0  0  0  0  0
    6.1167   -1.8542    0.0000 C   0  0  0  0  0  0  0  0  0  0  0  0
    8.1042   -2.6792    0.0000 C   0  0  0  0  0  0  0  0  0  0  0  0
    3.9792   -3.1042    0.0000 C   0  0  0  0  0  0  0  0  0  0  0  0
    7.6292   -3.3542    0.0000 C   0  0  0  0  0  0  0  0  0  0  0  0
    7.9667   -1.2667    0.0000 C   0  0  0  0  0  0  0  0  0  0  0  0
    3.9792   -4.7542    0.0000 C   0  0  0  0  0  0  0  0  0  0  0  0
    6.1292   -4.3417    0.0000 C   0  0  0  0  0  0  0  0  0  0  0  0
    3.2667   -3.5167    0.0000 C   0  0  0  0  0  0  0  0  0  0  0  0
    3.2667   -4.3417    0.0000 C   0  0  0  0  0  0  0  0  0  0  0  0
    7.4792   -0.5917    0.0000 C   0  0  0  0  0  0  0  0  0  0  0  0
    7.8167    0.1583    0.0000 O   0  0  0  0  0  0  0  0  0  0  0  0
    8.6500    1.0625    0.0000 O   0  0  0  0  0  0  0  0  0  0  0  0
    9.3375    0.6250    0.0000 O   0  0  0  0  0  0  0  0  0  0  0  0
    5.4042   -4.7542    0.0000 C   0  0  0  0  0  0  0  0  0  0  0  0
    9.1167   -0.4250    0.0000 O   0  0  0  0  0  0  0  0  0  0  0  0
    5.4042   -3.9292    0.0000 F   0  0  0  0  0  0  0  0  0  0  0  0
    8.7792   -1.1792    0.0000 O   0  0  0  0  0  0  0  0  0  0  0  0
    2.5417   -4.7667    0.0000 O   0  0  0  0  0  0  0  0  0  0  0  0
    8.6917   -2.0292    0.0000 O   0  0  0  0  0  0  0  0  0  0  0  0
    6.8417   -1.4417    0.0000 C   0  0  0  0  0  0  0  0  0  0  0  0
    4.6917   -1.8417    0.0000 O   0  0  0  0  0  0  0  0  0  0  0  0
    4.6917   -2.6792    0.0000 C   0  0  0  0  0  0  0  0  0  0  0  0
   10.3292    0.3458    0.0000 Na  0  0  0  0  0 15  0  0  0  0  0  0
    9.5542    1.4083    0.0000 Na  0  0  0  0  0 15  0  0  0  0  0  0
    8.8417   -2.6917    0.0000 C   0  0  0  0  0  0  0  0  0  0  0  0
  2  9  1  0
  3  2  1  0
  4  1  1  0
  5  1  1  0
  6  4  1  0
  7  3  1  0
  8 20  1  0
  9 10  1  0
 10  1  1  0
 11  5  1  0
 12  3  1  0
 13  4  1  0
  5 14  1  0
 15  7  2  0
 16  6  1  0
 17 12  2  0
 18 17  1  0
 19 14  1  0
 20 19  1  0
 21  8  1  0
 22  8  1  0
 23 16  1  0
 24  8  2  0
  2 25  1  6
 26 14  2  0
 27 18  2  0
  5 28  1  6
  1 29  1  1
  9 30  1  1
  3 31  1  1
 11 34  1  1
 11 13  1  0
  2  6  1  0
 23  7  1  0
 15 18  1  0
M  CHG  4  21  -1  22  -1  32   1  33   1
M  END
>  <ID>  (238) 


>  <MOLENAME>  (238) 
BETAMETHASONE SODIUM PHOSPHATE

>  <therap>  (238) 
antiinflammatory, glucocorticoid

>  <ref>  (238) 
Br Med J 291:788 (1985); 303:761 (1991)

>  <cas#>  (238) 
151-73-5

>  <source>  (238) 
semisynthetic

>  <status>  (238) 
USP, BAN, JAN

>  <tradename>  (238) 
CELESTONE

>  <SMILES>  (238) 
C[C@H]1CC2C3CCC4=CC(=O)C=C[C@]4(C)[C@@]3(F)[C@@H](O)C[C@]2(C)[C@@]1(O)C(=O)COP(=O)(O)O

>  <standardized_failed>  (238) 
False

$$$$

     RDKit          2D

 19 18  0  0  0  0  0  0  0  0999 V2000
    3.1917   -2.3625    0.0000 C   0  0  0  0  0  0  0  0  0  0  0  0
    8.8917   -2.3417    0.0000 C   0  0  0  0  0  0  0  0  0  0  0  0
    3.1917   -3.1875    0.0000 O   0  0  0  0  0  0  0  0  0  0  0  0
    8.8917   -3.1667    0.0000 O   0  0  0  0  0  0  0  0  0  0  0  0
    2.4792   -1.9542    0.0000 N   0  0  0  0  0  0  0  0  0  0  0  0
    9.6042   -1.9292    0.0000 N   0  0  0  0  0  0  0  0  0  0  0  0
    0.3417   -2.3667    0.0000 O   0  0  0  0  0  0  0  0  0  0  0  0
   11.7417   -2.3375    0.0000 O   0  0  0  0  0  0  0  0  0  0  0  0
    8.1792   -1.9375    0.0000 C   0  0  0  0  0  0  0  0  0  0  0  0
    3.9042   -1.9500    0.0000 C   0  0  0  0  0  0  0  0  0  0  0  0
   10.3167   -2.3417    0.0000 C   0  0  0  0  0  0  0  0  0  0  0  0
    1.7667   -2.3667    0.0000 C   0  0  0  0  0  0  0  0  0  0  0  0
   11.0292   -1.9292    0.0000 C   0  0  0  0  0  0  0  0  0  0  0  0
    1.0542   -1.9542    0.0000 C   0  0  0  0  0  0  0  0  0  0  0  0
    4.6167   -2.3542    0.0000 C   0  0  0  0  0  0  0  0  0  0  0  0
    7.4667   -2.3500    0.0000 C   0  0  0  0  0  0  0  0  0  0  0  0
    5.3292   -1.9417    0.0000 C   0  0  0  0  0  0  0  0  0  0  0  0
    6.0417   -2.3542    0.0000 C   0  0  0  0  0  0  0  0  0  0  0  0
    6.7542   -1.9417    0.0000 C   0  0  0  0  0  0  0  0  0  0  0  0
  2  9  1  0
  3  1  2  0
  4  2  2  0
  5  1  1  0
  6  2  1  0
  7 14  1  0
  8 13  1  0
  9 16  1  0
 10  1  1  0
 11  6  1  0
 12  5  1  0
 13 11  1  0
 14 12  1  0
 15 10  1  0
 16 19  1  0
 17 15  1  0
 18 17  1  0
 19 18  1  0
M  END
>  <ID>  (239) 


>  <MOLENAME>  (239) 
ADELMIDROL

>  <therap>  (239) 
antiinflammatory, analgesic

>  <ref>  (239) 
Acta Dermatovenerol Croat 15:80 (2007); J Cell Mol Med. 13:1086 (2009)

>  <cas#>  (239) 
1675-66-7

>  <source>  (239) 
synthetic

>  <status>  (239) 
INN

>  <tradename>  (239) 
RETOPIX

>  <SMILES>  (239) 
O=C(CCCCCCCC(=O)NCCO)NCCO

>  <standardized_failed>  (239) 
False

$$$$

     RDKit          2D

 29 31  0  0  0  0  0  0  0  0999 V2000
    5.7292   -3.1042    0.0000 C   0  0  0  0  0  0  0  0  0  0  0  0
    5.7292   -4.7542    0.0000 N   0  0  0  0  0  0  0  0  0  0  0  0
    5.0167   -3.5167    0.0000 C   0  0  0  0  0  0  0  0  0  0  0  0
    6.4500   -3.5167    0.0000 C   0  0  0  0  0  0  0  0  0  0  0  0
    5.0167   -4.3417    0.0000 C   0  0  0  0  0  0  0  0  0  0  0  0
    6.4500   -4.3417    0.0000 C   0  0  0  0  0  0  0  0  0  0  0  0
    9.8125   -1.4875    0.0000 C   0  0  0  0  0  0  0  0  0  0  0  0
    8.9875   -1.4875    0.0000 C   0  0  0  0  0  0  0  0  0  0  0  0
   10.2250   -2.2000    0.0000 C   0  0  0  0  0  0  0  0  0  0  0  0
    5.7292   -2.2792    0.0000 N   0  0  0  0  0  0  0  0  0  0  0  0
    9.8125   -2.9167    0.0000 C   0  0  0  0  0  0  0  0  0  0  0  0
    8.5667   -2.2000    0.0000 C   0  0  0  0  0  0  0  0  0  0  0  0
   10.2292   -0.7667    0.0000 O   0  0  0  0  0  0  0  0  0  0  0  0
    8.9792   -2.9167    0.0000 C   0  0  0  0  0  0  0  0  0  0  0  0
    4.3042   -3.1042    0.0000 C   0  0  0  0  0  0  0  0  0  0  0  0
    7.1625   -3.1042    0.0000 C   0  0  0  0  0  0  0  0  0  0  0  0
    7.7417   -2.2000    0.0000 O   0  0  0  0  0  0  0  0  0  0  0  0
    4.3042   -4.7542    0.0000 C   0  0  0  0  0  0  0  0  0  0  0  0
    7.1625   -4.7542    0.0000 C   0  0  0  0  0  0  0  0  0  0  0  0
   11.0500   -2.2000    0.0000 C   0  0  0  0  0  0  0  0  0  0  0  0
   11.4625   -1.4875    0.0000 C   0  0  0  0  0  0  0  0  0  0  0  0
   13.5292   -0.7750    0.0000 C   0  0  0  0  0  0  0  0  0  0  0  0
   12.7042   -0.7750    0.0000 C   0  0  0  0  0  0  0  0  0  0  0  0
   12.2917   -1.4875    0.0000 C   0  0  0  0  0  0  0  0  0  0  0  0
    7.8792   -3.5167    0.0000 C   0  0  0  0  0  0  0  0  0  0  0  0
    3.5917   -3.5167    0.0000 C   0  0  0  0  0  0  0  0  0  0  0  0
    3.5917   -4.3417    0.0000 C   0  0  0  0  0  0  0  0  0  0  0  0
    7.8792   -4.3417    0.0000 C   0  0  0  0  0  0  0  0  0  0  0  0
   13.9417   -0.0625    0.0000 C   0  0  0  0  0  0  0  0  0  0  0  0
  2  6  1  0
  3  1  2  0
  4  1  1  0
  5  3  1  0
  6  4  2  0
  8  7  2  0
  9  7  1  0
 10  1  1  0
 11  9  2  0
 12  8  1  0
 13  7  1  0
 14 11  1  0
 15  3  1  0
 16  4  1  0
 17 12  1  0
 18  5  1  0
 19  6  1  0
 20  9  1  0
 21 20  1  0
 22 23  1  0
 23 24  1  0
 24 21  1  0
 25 16  2  0
 26 15  2  0
 27 26  1  0
 28 25  1  0
 29 22  1  0
  2  5  2  0
 28 19  2  0
 27 18  2  0
 12 14  2  0
M  END
>  <ID>  (240) 


>  <MOLENAME>  (240) 
ACRISORCIN

>  <therap>  (240) 
antifungal

>  <ref>  (240) 
Antibiot Chemother11:587 (1961)

>  <cas#>  (240) 
7527-91-5

>  <source>  (240) 
synthetic

>  <status>  (240) 
USP-XXII, INN

>  <tradename>  (240) 
AKRINOL

>  <SMILES>  (240) 
CCCCCCc1ccc(O)cc1O.Nc1c2ccccc2nc2c1cccc2

>  <standardized_failed>  (240) 
False

$$$$

     RDKit          2D

 21 22  0  0  0  0  0  0  0  0999 V2000
    8.0792   -1.7542    0.0000 N   0  0  0  0  0  0  0  0  0  0  0  0
    5.9417   -1.3500    0.0000 C   0  0  0  0  0  0  0  0  0  0  0  0
    6.6542   -1.7542    0.0000 C   0  0  0  0  0  0  0  0  0  0  0  0
    5.2292   -1.7625    0.0000 C   0  0  0  0  0  0  0  0  0  0  0  0
    5.9375   -0.5250    0.0000 O   0  0  0  0  0  0  0  0  0  0  0  0
    7.3667   -1.3417    0.0000 C   0  0  0  0  0  0  0  0  0  0  0  0
    4.5167   -1.3500    0.0000 C   0  0  0  0  0  0  0  0  0  0  0  0
    5.2292   -2.5750    0.0000 C   0  0  0  0  0  0  0  0  0  0  0  0
    3.8125   -2.5792    0.0000 C   0  0  0  0  0  0  0  0  0  0  0  0
    4.5250   -2.9875    0.0000 C   0  0  0  0  0  0  0  0  0  0  0  0
    3.8083   -1.7625    0.0000 C   0  0  0  0  0  0  0  0  0  0  0  0
    3.1000   -2.9917    0.0000 O   0  0  0  0  0  0  0  0  0  0  0  0
    8.7917   -1.3417    0.0000 C   0  0  0  0  0  0  0  0  0  0  0  0
    8.0792   -2.5708    0.0000 C   0  0  0  0  0  0  0  0  0  0  0  0
    2.3833   -2.5792    0.0000 C   0  0  0  0  0  0  0  0  0  0  0  0
    1.6750   -2.9917    0.0000 C   0  0  0  0  0  0  0  0  0  0  0  0
    0.9625   -2.5792    0.0000 C   0  0  0  0  0  0  0  0  0  0  0  0
    9.5042   -1.7458    0.0000 C   0  0  0  0  0  0  0  0  0  0  0  0
    8.7917   -2.9833    0.0000 C   0  0  0  0  0  0  0  0  0  0  0  0
    0.2500   -2.9917    0.0000 C   0  0  0  0  0  0  0  0  0  0  0  0
    9.5042   -2.5708    0.0000 C   0  0  0  0  0  0  0  0  0  0  0  0
  2  3  1  0
  3  6  1  0
  4  2  1  0
  5  2  2  0
  6  1  1  0
  7  4  2  0
  8  4  1  0
  9 10  1  0
 10  8  2  0
 11  7  1  0
 12  9  1  0
 13  1  1  0
 14  1  1  0
 15 12  1  0
 16 15  1  0
 17 16  1  0
 18 13  1  0
 19 14  1  0
 20 17  1  0
 21 19  1  0
 18 21  1  0
  9 11  2  0
M  END
>  <ID>  (241) 


>  <MOLENAME>  (241) 
DYCLONINE HYDROCHLORIDE

>  <therap>  (241) 
anesthetic (local)

>  <ref>  (241) 
Anesthesiology 17:648 (1956); Arch Otolaryngol 74:437 (1961)

>  <cas#>  (241) 
586-60-7

>  <source>  (241) 
synthetic

>  <status>  (241) 
USP

>  <tradename>  (241) 
DYCLONE

>  <SMILES>  (241) 
CCCCOc1ccc(C(=O)CCN2CCCCC2)cc1

>  <standardized_failed>  (241) 
False

$$$$

     RDKit          2D

 21 24  0  0  0  0  0  0  0  0999 V2000
    4.1750   -4.5542    0.0000 C   0  0  0  0  0  0  0  0  0  0  0  0
    6.3417   -3.3000    0.0000 C   0  0  0  0  0  0  0  0  0  0  0  0
    4.1750   -5.3792    0.0000 C   0  0  0  0  0  0  0  0  0  0  0  0
    4.9042   -4.1292    0.0000 C   0  0  0  0  0  0  0  0  0  0  0  0
    6.3417   -4.1292    0.0000 C   0  0  0  0  0  0  0  0  0  0  0  0
    5.6250   -4.5542    0.0000 C   0  0  0  0  0  0  0  0  0  0  0  0
    3.4417   -5.8125    0.0000 C   0  0  0  0  0  0  0  0  0  0  0  0
    5.6250   -2.8667    0.0000 C   0  0  0  0  0  0  0  0  0  0  0  0
    4.9042   -3.3000    0.0000 C   0  0  0  0  0  0  0  0  0  0  0  0
    3.4417   -4.1292    0.0000 C   0  0  0  0  0  0  0  0  0  0  0  0
    5.6250   -5.3792    0.0000 C   0  0  0  0  0  0  0  0  0  0  0  0
    7.1417   -4.3792    0.0000 C   0  0  0  0  0  0  0  0  0  0  0  0
    4.9042   -5.8125    0.0000 C   0  0  0  0  0  0  0  0  0  0  0  0
    7.1417   -3.0292    0.0000 C   0  0  0  0  0  0  0  0  0  0  0  0
    2.7167   -5.3792    0.0000 C   0  0  0  0  0  0  0  0  0  0  0  0
    7.6250   -3.7250    0.0000 C   0  0  0  0  0  0  0  0  0  0  0  0
    2.0250   -5.7792    0.0000 O   0  0  0  0  0  0  0  0  0  0  0  0
    2.7250   -4.5542    0.0000 C   0  0  0  0  0  0  0  0  0  0  0  0
    4.1750   -3.7250    0.0000 C   0  0  0  0  0  0  0  0  0  0  0  0
    6.3417   -2.4917    0.0000 C   0  0  0  0  0  0  0  0  0  0  0  0
    7.3542   -2.2500    0.0000 O   0  0  0  0  0  0  0  0  0  0  0  0
  2  8  1  0
  3  1  1  0
  4  1  1  0
  5  6  1  0
  6  4  1  0
  7  3  2  0
  8  9  1  0
  9  4  1  0
 10  1  1  0
 11  6  1  0
 12  5  1  0
 13  3  1  0
 14  2  1  0
 15 18  1  0
 16 12  1  0
 17 15  2  0
 18 10  1  0
  1 19  1  1
  2 20  1  1
 14 21  1  1
 13 11  1  0
  7 15  1  0
  5  2  1  0
 16 14  1  0
M  END
>  <ID>  (242) 


>  <MOLENAME>  (242) 
TESTOSTERONE

>  <therap>  (242) 
androgen, antineoplastic

>  <ref>  (242) 
Neurobiol Aging 15:559 (1994); Am J Med 98 Suppl 1A: 17S (1995); Sci Am 272:76 (1995)

>  <cas#>  (242) 
58-22-0

>  <source>  (242) 
mamallian male hormone

>  <status>  (242) 
USP, INN, BAN

>  <tradename>  (242) 
TESTIM

>  <SMILES>  (242) 
C[C@]12CCC3C(CCC4=CC(=O)CC[C@@]43C)C1CC[C@@H]2O

>  <standardized_failed>  (242) 
False

$$$$

     RDKit          2D

 23 26  0  0  0  0  0  0  0  0999 V2000
    6.9625   -2.5250    0.0000 C   0  0  0  0  0  0  0  0  0  0  0  0
    6.9625   -3.3542    0.0000 C   0  0  0  0  0  0  0  0  0  0  0  0
    4.8125   -4.5917    0.0000 C   0  0  0  0  0  0  0  0  0  0  0  0
    6.2417   -3.7667    0.0000 C   0  0  0  0  0  0  0  0  0  0  0  0
    5.5250   -3.3542    0.0000 C   0  0  0  0  0  0  0  0  0  0  0  0
    4.8125   -3.7667    0.0000 C   0  0  0  0  0  0  0  0  0  0  0  0
    7.7417   -2.2667    0.0000 C   0  0  0  0  0  0  0  0  0  0  0  0
    4.1000   -5.0042    0.0000 C   0  0  0  0  0  0  0  0  0  0  0  0
    8.5250   -2.5292    0.0000 C   0  0  0  0  0  0  0  0  0  0  0  0
    6.2375   -2.1125    0.0000 C   0  0  0  0  0  0  0  0  0  0  0  0
    5.5250   -2.5250    0.0000 C   0  0  0  0  0  0  0  0  0  0  0  0
    6.2417   -4.5917    0.0000 C   0  0  0  0  0  0  0  0  0  0  0  0
    7.7417   -3.6042    0.0000 C   0  0  0  0  0  0  0  0  0  0  0  0
    9.3125   -2.7875    0.0000 C   0  0  0  0  0  0  0  0  0  0  0  0
    4.1000   -3.3542    0.0000 C   0  0  0  0  0  0  0  0  0  0  0  0
    5.5250   -5.0042    0.0000 C   0  0  0  0  0  0  0  0  0  0  0  0
    3.3875   -4.5917    0.0000 C   0  0  0  0  0  0  0  0  0  0  0  0
    8.2250   -2.9375    0.0000 C   0  0  0  0  0  0  0  0  0  0  0  0
    2.6625   -5.0042    0.0000 O   0  0  0  0  0  0  0  0  0  0  0  0
    3.3875   -3.7667    0.0000 C   0  0  0  0  0  0  0  0  0  0  0  0
    8.0792   -1.5167    0.0000 O   0  0  0  0  0  0  0  0  0  0  0  0
    6.9542   -1.7000    0.0000 C   0  0  0  0  0  0  0  0  0  0  0  0
    6.3000   -1.3792    0.0000 C   0  0  0  0  0  0  0  0  0  0  0  0
  2  1  1  0
  3  6  1  0
  4  2  1  0
  5 11  1  0
  6  5  1  0
  7  1  1  0
  8  3  2  0
  7  9  1  0
 10  1  1  0
 11 10  1  0
 12  4  1  0
 13  2  1  0
 14  9  3  0
  6 15  1  6
 16 12  1  0
 17 20  1  0
 18  7  1  0
 19 17  2  0
 20 15  1  0
  7 21  1  1
  1 22  1  1
 23 22  1  0
 13 18  1  0
  4  5  1  0
  3 16  1  0
  8 17  1  0
M  END
>  <ID>  (243) 


>  <MOLENAME>  (243) 
LEVONORGESTREL

>  <therap>  (243) 
progestin

>  <ref>  (243) 
Ann. Med. (1993), 25(2), 155-60; Clin. Pharmacol. Ther. (1966), 7(4), 490-500; Steroids (1963), 2(3), 319-35

>  <cas#>  (243) 
797-63-7

>  <source>  (243) 
synthetic;WY-5104

>  <status>  (243) 
USP, INN, BAN

>  <tradename>  (243) 
MIRENA

>  <SMILES>  (243) 
C#C[C@]1(O)CCC2C3CCC4=CC(=O)CC[C@@H]4C3CC[C@@]21CC

>  <standardized_failed>  (243) 
False

$$$$

     RDKit          2D

 31 32  0  0  0  0  0  0  0  0999 V2000
    1.8542   -2.3667    0.0000 C   0  0  0  0  0  0  0  0  0  0  0  0
    1.8500   -3.1917    0.0000 C   0  0  0  0  0  0  0  0  0  0  0  0
    1.1417   -1.9500    0.0000 C   0  0  0  0  0  0  0  0  0  0  0  0
    0.4292   -3.1917    0.0000 C   0  0  0  0  0  0  0  0  0  0  0  0
    1.1417   -3.6000    0.0000 C   0  0  0  0  0  0  0  0  0  0  0  0
    0.4292   -2.3667    0.0000 C   0  0  0  0  0  0  0  0  0  0  0  0
    2.5667   -1.9542    0.0000 O   0  0  0  0  0  0  0  0  0  0  0  0
    2.5625   -3.6042    0.0000 C   0  0  0  0  0  0  0  0  0  0  0  0
    3.2792   -2.3667    0.0000 C   0  0  0  0  0  0  0  0  0  0  0  0
    3.2792   -3.1917    0.0000 C   0  0  0  0  0  0  0  0  0  0  0  0
   -0.2833   -3.6042    0.0000 O   0  0  0  0  0  0  0  0  0  0  0  0
    1.1417   -1.1250    0.0000 C   0  0  0  0  0  0  0  0  0  0  0  0
    1.1417   -4.4250    0.0000 C   0  0  0  0  0  0  0  0  0  0  0  0
   -0.2833   -1.9542    0.0000 C   0  0  0  0  0  0  0  0  0  0  0  0
    4.0750   -2.5792    0.0000 C   0  0  0  0  0  0  0  0  0  0  0  0
    4.7875   -2.1667    0.0000 C   0  0  0  0  0  0  0  0  0  0  0  0
    7.6375   -2.1667    0.0000 C   0  0  0  0  0  0  0  0  0  0  0  0
    9.7750   -3.4042    0.0000 C   0  0  0  0  0  0  0  0  0  0  0  0
    3.6875   -1.6542    0.0000 C   0  0  0  0  0  0  0  0  0  0  0  0
    9.0625   -3.8125    0.0000 C   0  0  0  0  0  0  0  0  0  0  0  0
    8.3500   -2.5792    0.0000 C   0  0  0  0  0  0  0  0  0  0  0  0
    9.7750   -2.5792    0.0000 C   0  0  0  0  0  0  0  0  0  0  0  0
    6.9250   -2.5792    0.0000 C   0  0  0  0  0  0  0  0  0  0  0  0
    5.5000   -2.5792    0.0000 C   0  0  0  0  0  0  0  0  0  0  0  0
    9.0625   -2.1667    0.0000 C   0  0  0  0  0  0  0  0  0  0  0  0
    6.2125   -2.1667    0.0000 C   0  0  0  0  0  0  0  0  0  0  0  0
    9.0625   -4.6292    0.0000 C   0  0  0  0  0  0  0  0  0  0  0  0
    8.3500   -5.0417    0.0000 C   0  0  0  0  0  0  0  0  0  0  0  0
    9.7750   -5.0417    0.0000 C   0  0  0  0  0  0  0  0  0  0  0  0
    9.0625   -1.3417    0.0000 C   0  0  0  0  0  0  0  0  0  0  0  0
    6.2125   -1.3417    0.0000 C   0  0  0  0  0  0  0  0  0  0  0  0
  2  1  1  0
  3  1  2  0
  4  6  2  0
  5  2  2  0
  6  3  1  0
  7  1  1  0
  8  2  1  0
  9  7  1  0
 10  9  1  0
 11  4  1  0
 12  3  1  0
 13  5  1  0
 14  6  1  0
 15  9  1  0
 16 15  1  0
 17 23  1  0
 18 22  1  0
 19  9  1  0
 20 18  1  0
 21 17  1  0
 22 25  1  0
 23 26  1  0
 24 16  1  0
 25 21  1  0
 26 24  1  0
 27 20  1  0
 28 27  1  0
 29 27  1  0
 30 25  1  0
 31 26  1  0
  5  4  1  0
  8 10  1  0
M  END
>  <ID>  (244) 


>  <MOLENAME>  (244) 
alpha-TOCHOPHEROL

>  <therap>  (244) 
vitamin E, antioxidant

>  <ref>  (244) 
N Engl J Med 336:1216 (1997); J Am Med Assoc 277:1380 (1977)

>  <cas#>  (244) 
59-02-9

>  <source>  (244) 
soya, wheat germ and other plant oils

>  <status>  (244) 
USP

>  <tradename>  (244) 
nan

>  <SMILES>  (244) 
Cc1c(O)c(C)c2CCC(C)(CCCC(C)CCCC(C)CCCC(C)C)Oc2c1C

>  <standardized_failed>  (244) 
False

$$$$

     RDKit          2D

 34 35  0  0  0  0  0  0  0  0999 V2000
    1.8542   -2.3667    0.0000 C   0  0  0  0  0  0  0  0  0  0  0  0
    0.4292   -3.1917    0.0000 C   0  0  0  0  0  0  0  0  0  0  0  0
    1.8500   -3.1917    0.0000 C   0  0  0  0  0  0  0  0  0  0  0  0
    1.1417   -3.6000    0.0000 C   0  0  0  0  0  0  0  0  0  0  0  0
    1.1417   -1.9500    0.0000 C   0  0  0  0  0  0  0  0  0  0  0  0
    0.4292   -2.3667    0.0000 C   0  0  0  0  0  0  0  0  0  0  0  0
    2.5667   -1.9542    0.0000 O   0  0  0  0  0  0  0  0  0  0  0  0
   -0.2833   -3.6042    0.0000 O   0  0  0  0  0  0  0  0  0  0  0  0
    2.5625   -3.6042    0.0000 C   0  0  0  0  0  0  0  0  0  0  0  0
    3.2792   -2.3667    0.0000 C   0  0  0  0  0  0  0  0  0  0  0  0
   -0.9958   -3.1917    0.0000 C   0  0  0  0  0  0  0  0  0  0  0  0
   -1.0000   -2.3667    0.0000 O   0  0  0  0  0  0  0  0  0  0  0  0
    3.2792   -3.1917    0.0000 C   0  0  0  0  0  0  0  0  0  0  0  0
    1.1417   -1.1250    0.0000 C   0  0  0  0  0  0  0  0  0  0  0  0
    1.1417   -4.4250    0.0000 C   0  0  0  0  0  0  0  0  0  0  0  0
   -0.2833   -1.9542    0.0000 C   0  0  0  0  0  0  0  0  0  0  0  0
    4.0750   -2.5792    0.0000 C   0  0  0  0  0  0  0  0  0  0  0  0
    4.7875   -2.1667    0.0000 C   0  0  0  0  0  0  0  0  0  0  0  0
    7.6375   -2.1667    0.0000 C   0  0  0  0  0  0  0  0  0  0  0  0
    9.7750   -3.4042    0.0000 C   0  0  0  0  0  0  0  0  0  0  0  0
   -1.7125   -3.6042    0.0000 C   0  0  0  0  0  0  0  0  0  0  0  0
    3.6875   -1.6542    0.0000 C   0  0  0  0  0  0  0  0  0  0  0  0
    9.0625   -3.8125    0.0000 C   0  0  0  0  0  0  0  0  0  0  0  0
    5.5000   -2.5792    0.0000 C   0  0  0  0  0  0  0  0  0  0  0  0
    8.3500   -2.5792    0.0000 C   0  0  0  0  0  0  0  0  0  0  0  0
    9.7750   -2.5792    0.0000 C   0  0  0  0  0  0  0  0  0  0  0  0
    6.9250   -2.5792    0.0000 C   0  0  0  0  0  0  0  0  0  0  0  0
    6.2125   -2.1667    0.0000 C   0  0  0  0  0  0  0  0  0  0  0  0
    9.0625   -2.1667    0.0000 C   0  0  0  0  0  0  0  0  0  0  0  0
    9.0625   -4.6292    0.0000 C   0  0  0  0  0  0  0  0  0  0  0  0
    9.7750   -5.0417    0.0000 C   0  0  0  0  0  0  0  0  0  0  0  0
    8.3500   -5.0417    0.0000 C   0  0  0  0  0  0  0  0  0  0  0  0
    6.2125   -1.3417    0.0000 C   0  0  0  0  0  0  0  0  0  0  0  0
    9.0625   -1.3417    0.0000 C   0  0  0  0  0  0  0  0  0  0  0  0
  2  6  2  0
  3  1  1  0
  4  3  2  0
  5  1  2  0
  6  5  1  0
  7  1  1  0
  8  2  1  0
  9  3  1  0
 10  7  1  0
 11  8  1  0
 12 11  2  0
 13 10  1  0
 14  5  1  0
 15  4  1  0
 16  6  1  0
 17 10  1  0
 18 17  1  0
 19 27  1  0
 20 26  1  0
 21 11  1  0
 22 10  1  0
 23 20  1  0
 24 18  1  0
 25 19  1  0
 26 29  1  0
 27 28  1  0
 28 24  1  0
 29 25  1  0
 30 23  1  0
 31 30  1  0
 32 30  1  0
 33 28  1  0
 34 29  1  0
  4  2  1  0
  9 13  1  0
M  END
>  <ID>  (245) 


>  <MOLENAME>  (245) 
alpha-TOCHOPHERYL ACETATE

>  <therap>  (245) 
vitamin E

>  <ref>  (245) 
Anal Profiles Drug Subs 3:111 (1974)

>  <cas#>  (245) 
58-95-7

>  <source>  (245) 
derivative

>  <status>  (245) 
USP

>  <tradename>  (245) 
EPHYNAL

>  <SMILES>  (245) 
CC(=O)Oc1c(C)c(C)c2OC(C)(CCCC(C)CCCC(C)CCCC(C)C)CCc2c1C

>  <standardized_failed>  (245) 
False

$$$$

     RDKit          2D

 16 14  0  0  0  0  0  0  0  0999 V2000
    4.2792   -2.5042    0.0000 C   0  0  0  0  0  0  0  0  0  0  0  0
    2.8542   -2.5042    0.0000 C   0  0  0  0  0  0  0  0  0  0  0  0
    3.5667   -2.0917    0.0000 C   0  0  0  0  0  0  0  0  0  0  0  0
    7.1292   -2.5042    0.0000 C   0  0  0  0  0  0  0  0  0  0  0  0
    6.4167   -2.0917    0.0000 C   0  0  0  0  0  0  0  0  0  0  0  0
    7.8417   -2.0917    0.0000 O   0  0  0  0  0  0  0  0  0  0  0  0
    4.2792   -3.3292    0.0000 O   0  0  0  0  0  0  0  0  0  0  0  0
    7.1292   -3.3292    0.0000 O   0  0  0  0  0  0  0  0  0  0  0  0
    4.9917   -2.0917    0.0000 N   0  0  0  0  0  0  0  0  0  0  0  0
    5.7042   -2.5042    0.0000 C   0  0  0  0  0  0  0  0  0  0  0  0
    3.5667   -1.2667    0.0000 O   0  0  0  0  0  0  0  0  0  0  0  0
    9.2917   -1.9917    0.0000 Na  0  0  0  0  0 15  0  0  0  0  0  0
    2.1417   -2.0917    0.0000 C   0  0  0  0  0  0  0  0  0  0  0  0
    2.4375   -3.2167    0.0000 C   0  0  0  0  0  0  0  0  0  0  0  0
    3.2625   -3.2167    0.0000 C   0  0  0  0  0  0  0  0  0  0  0  0
    1.4292   -2.5042    0.0000 O   0  0  0  0  0  0  0  0  0  0  0  0
  2  3  1  0
  3  1  1  0
  4  5  1  0
  5 10  1  0
  6  4  1  0
  7  1  2  0
  8  4  2  0
  9  1  1  0
 10  9  1  0
  3 11  1  1
 13  2  1  0
 14  2  1  0
 15  2  1  0
 16 13  1  0
M  CHG  2   6  -1  12   1
M  END
>  <ID>  (246) 


>  <MOLENAME>  (246) 
PANTOTHENIC ACID(d) Na salt

>  <therap>  (246) 
vitamin B5 

>  <ref>  (246) 
Biophys  Res Commun 38:181 (1970)

>  <cas#>  (246) 
63409-48-3

>  <source>  (246) 
rice bran, queen bee jelly

>  <status>  (246) 
USP, INN, JAN

>  <tradename>  (246) 
nan

>  <SMILES>  (246) 
CC(C)(CO)[C@@H](O)C(=O)NCCC(=O)O

>  <standardized_failed>  (246) 
False

$$$$

     RDKit          2D

 24 27  0  0  0  0  0  0  0  0999 V2000
    6.6292   -4.1917    0.0000 C   0  0  0  0  0  0  0  0  0  0  0  0
    7.4167   -4.4417    0.0000 C   0  0  0  0  0  0  0  0  0  0  0  0
    6.1542   -4.8667    0.0000 N   0  0  0  0  0  0  0  0  0  0  0  0
    5.3542   -3.7917    0.0000 C   0  0  0  0  0  0  0  0  0  0  0  0
    5.3625   -4.6167    0.0000 C   0  0  0  0  0  0  0  0  0  0  0  0
    6.1417   -3.5292    0.0000 C   0  0  0  0  0  0  0  0  0  0  0  0
    8.1292   -4.8500    0.0000 N   0  0  0  0  0  0  0  0  0  0  0  0
    7.4292   -5.2667    0.0000 C   0  0  0  0  0  0  0  0  0  0  0  0
    4.6417   -3.3792    0.0000 C   0  0  0  0  0  0  0  0  0  0  0  0
    4.6417   -5.0375    0.0000 C   0  0  0  0  0  0  0  0  0  0  0  0
    3.9292   -4.6250    0.0000 C   0  0  0  0  0  0  0  0  0  0  0  0
    3.9292   -3.8000    0.0000 C   0  0  0  0  0  0  0  0  0  0  0  0
    6.6417   -5.5292    0.0000 C   0  0  0  0  0  0  0  0  0  0  0  0
    6.3917   -2.7500    0.0000 C   0  0  0  0  0  0  0  0  0  0  0  0
    7.4500   -1.7875    0.0000 C   0  0  0  0  0  0  0  0  0  0  0  0
    4.6375   -2.5542    0.0000 O   0  0  0  0  0  0  0  0  0  0  0  0
    4.6417   -5.8625    0.0000 O   0  0  0  0  0  0  0  0  0  0  0  0
    7.1917   -2.5667    0.0000 O   0  0  0  0  0  0  0  0  0  0  0  0
    7.1125   -3.5292    0.0000 O   0  0  0  0  0  0  0  0  0  0  0  0
    3.2167   -3.3875    0.0000 N   0  0  0  0  0  0  0  0  0  0  0  0
    6.8917   -1.1750    0.0000 O   0  0  0  0  0  0  0  0  0  0  0  0
    8.2542   -1.6042    0.0000 N   0  0  0  0  0  0  0  0  0  0  0  0
    3.2125   -5.0375    0.0000 C   0  0  0  0  0  0  0  0  0  0  0  0
    7.9292   -3.6042    0.0000 C   0  0  0  0  0  0  0  0  0  0  0  0
  2  1  1  0
  3  1  1  0
  4  6  1  0
  5  3  1  0
  6  1  1  0
  2  7  1  6
  8  2  1  0
  9  4  1  0
 10  5  1  0
 11 10  1  0
 12  9  1  0
 13  3  1  0
  6 14  1  6
 15 18  1  0
 16  9  2  0
 17 10  2  0
 18 14  1  0
  1 19  1  1
 20 12  1  0
 21 15  2  0
 22 15  1  0
 23 11  1  0
 24 19  1  0
  8 13  1  0
  5  4  2  0
  7  8  1  0
 11 12  2  0
M  END
>  <ID>  (247) 


>  <MOLENAME>  (247) 
MITOMYCIN

>  <therap>  (247) 
antineoplastic

>  <ref>  (247) 
Semin. Oncol. (1988), 15(3 Suppl 4), 74-9; Science (1963), 142(3596), 1181-3; Proc. Natl. Acad. Sci. U. S. A. (1963), 50, 355-62

>  <cas#>  (247) 
50-07-7

>  <source>  (247) 
Streptomyces verticillatus; NSC-26980

>  <status>  (247) 
USP, INN, BAN, JAN

>  <tradename>  (247) 
MUTAMYCIN

>  <SMILES>  (247) 
CO[C@]12[C@@H](COC(N)=O)C3=C(C(=O)C(C)=C(N)C3=O)N1CC1N[C@H]12

>  <standardized_failed>  (247) 
False

$$$$

     RDKit          2D

 20 20  0  0  0  0  0  0  0  0999 V2000
    6.4792   -0.2417    0.0000 C   0  0  0  0  0  0  0  0  0  0  0  0
    7.1917   -1.4792    0.0000 C   0  0  0  0  0  0  0  0  0  0  0  0
    5.7667   -1.4792    0.0000 C   0  0  0  0  0  0  0  0  0  0  0  0
    7.1917   -0.6542    0.0000 C   0  0  0  0  0  0  0  0  0  0  0  0
    5.7667   -0.6542    0.0000 C   0  0  0  0  0  0  0  0  0  0  0  0
    6.4792   -1.8917    0.0000 C   0  0  0  0  0  0  0  0  0  0  0  0
    6.4750    0.5833    0.0000 C   0  0  0  0  0  0  0  0  0  0  0  0
    5.0500   -1.8917    0.0000 N   0  0  0  0  0  0  0  0  0  0  0  0
    7.9125   -1.8917    0.0000 N   0  0  0  0  0  0  0  0  0  0  0  0
    4.3375   -1.4792    0.0000 C   0  0  0  0  0  0  0  0  0  0  0  0
    8.6250   -1.4792    0.0000 C   0  0  0  0  0  0  0  0  0  0  0  0
    5.7625    0.9958    0.0000 O   0  0  0  0  0  0  0  0  0  0  0  0
    5.0542   -0.2417    0.0000 I   0  0  0  0  0  0  0  0  0  0  0  0
    7.9042   -0.2375    0.0000 I   0  0  0  0  0  0  0  0  0  0  0  0
    6.4792   -2.7167    0.0000 I   0  0  0  0  0  0  0  0  0  0  0  0
    4.3375   -0.6542    0.0000 O   0  0  0  0  0  0  0  0  0  0  0  0
    8.6250   -0.6542    0.0000 O   0  0  0  0  0  0  0  0  0  0  0  0
    7.1917    0.9958    0.0000 O   0  0  0  0  0  0  0  0  0  0  0  0
    9.3417   -1.8917    0.0000 C   0  0  0  0  0  0  0  0  0  0  0  0
    3.6167   -1.8917    0.0000 C   0  0  0  0  0  0  0  0  0  0  0  0
  2  4  1  0
  3  5  2  0
  4  1  2  0
  5  1  1  0
  6  3  1  0
  7  1  1  0
  8  3  1  0
  9  2  1  0
 10  8  1  0
 11  9  1  0
 12  7  2  0
 13  5  1  0
 14  4  1  0
 15  6  1  0
 16 10  2  0
 17 11  2  0
 18  7  1  0
 19 11  1  0
 20 10  1  0
  6  2  2  0
M  END
>  <ID>  (248) 


>  <MOLENAME>  (248) 
DIATRIZOIC ACID

>  <therap>  (248) 
radiopaque agent

>  <ref>  (248) 
Anal Profiles Drug Subst 4:137 (1975)

>  <cas#>  (248) 
117-96-4

>  <source>  (248) 
synthetic

>  <status>  (248) 
USP, BAN, JAN

>  <tradename>  (248) 
UROVIST

>  <SMILES>  (248) 
CC(=O)Nc1c(I)c(NC(C)=O)c(I)c(C(=O)O)c1I

>  <standardized_failed>  (248) 
False

$$$$

     RDKit          2D

 29 31  0  0  0  0  0  0  0  0999 V2000
    7.8042   -7.2125    0.0000 N   0  0  0  0  0  0  0  0  0  0  0  0
    7.8042   -8.0375    0.0000 C   0  0  0  0  0  0  0  0  0  0  0  0
    6.9792   -7.2167    0.0000 C   0  0  0  0  0  0  0  0  0  0  0  0
    6.9792   -8.0417    0.0000 C   0  0  0  0  0  0  0  0  0  0  0  0
    5.3375   -9.3875    0.0000 C   0  0  0  0  0  0  0  0  0  0  0  0
    8.5875   -6.9542    0.0000 C   0  0  0  0  0  0  0  0  0  0  0  0
    8.5875   -8.2917    0.0000 S   0  0  0  0  0  0  0  0  0  0  0  0
    5.6375   -8.6042    0.0000 C   0  0  0  0  0  0  0  0  0  0  0  0
    9.0750   -7.6292    0.0000 C   0  0  0  0  0  0  0  0  0  0  0  0
    4.4917  -10.4167    0.0000 N   0  0  0  0  0  0  0  0  0  0  0  0
    6.4042   -8.6167    0.0000 N   0  0  0  0  0  0  0  0  0  0  0  0
    4.5417   -9.6000    0.0000 C   0  0  0  0  0  0  0  0  0  0  0  0
    5.2667  -10.7167    0.0000 O   0  0  0  0  0  0  0  0  0  0  0  0
    5.7792  -10.0792    0.0000 C   0  0  0  0  0  0  0  0  0  0  0  0
    8.5875   -6.1292    0.0000 C   0  0  0  0  0  0  0  0  0  0  0  0
    6.4042   -6.6375    0.0000 O   0  0  0  0  0  0  0  0  0  0  0  0
    5.1167   -7.9625    0.0000 O   0  0  0  0  0  0  0  0  0  0  0  0
    9.3000   -5.7167    0.0000 O   0  0  0  0  0  0  0  0  0  0  0  0
    3.7125   -9.6000    0.0000 C   0  0  0  0  0  0  0  0  0  0  0  0
    7.8667   -5.7167    0.0000 O   0  0  0  0  0  0  0  0  0  0  0  0
    9.6625   -8.2167    0.0000 C   0  0  0  0  0  0  0  0  0  0  0  0
    9.6625   -7.0500    0.0000 C   0  0  0  0  0  0  0  0  0  0  0  0
   10.0167   -6.1375    0.0000 Na  0  0  0  0  0 15  0  0  0  0  0  0
    6.6042  -10.1375    0.0000 C   0  0  0  0  0  0  0  0  0  0  0  0
    3.3000  -10.3125    0.0000 C   0  0  0  0  0  0  0  0  0  0  0  0
    3.3000   -8.8792    0.0000 C   0  0  0  0  0  0  0  0  0  0  0  0
    2.4667  -10.3125    0.0000 C   0  0  0  0  0  0  0  0  0  0  0  0
    2.4667   -8.8792    0.0000 C   0  0  0  0  0  0  0  0  0  0  0  0
    2.0542   -9.6000    0.0000 C   0  0  0  0  0  0  0  0  0  0  0  0
  2  1  1  0
  3  1  1  0
  4  3  1  0
  5  8  1  0
  6  1  1  0
  2  7  1  6
  8 11  1  0
  9  6  1  0
 10 12  2  0
 11  4  1  0
 12  5  1  0
 13 14  1  0
 14  5  2  0
  6 15  1  1
 16  3  2  0
 17  8  2  0
 18 15  1  0
 19 12  1  0
 20 15  2  0
 21  9  1  0
 22  9  1  0
 24 14  1  0
 25 19  2  0
 26 19  1  0
 27 25  1  0
 28 26  2  0
 29 27  2  0
  9  7  1  0
  2  4  1  0
 13 10  1  0
 28 29  1  0
M  CHG  2  18  -1  23   1
M  END
>  <ID>  (249) 


>  <MOLENAME>  (249) 
OXACILLIN SODIUM

>  <therap>  (249) 
antibacterial

>  <ref>  (249) 
Nature (1962), 195, 1300-1; Nature (1961), 192, 1183-4; Am. J. Med. Sci. (1965), 245(4), 399-412

>  <cas#>  (249) 
7240-38-2, 1173-88-2 [anhydrous], 66-79-5 [oxacillin]

>  <source>  (249) 
semisynthetic; P-12, SQ-16423

>  <status>  (249) 
USP, INN, BAN, JAN

>  <tradename>  (249) 
BACTOCILL

>  <SMILES>  (249) 
Cc1c(C(=O)NC2C(=O)N3[C@@H](C(=O)O)C(C)(C)S[C@H]23)c(-c2ccccc2)no1

>  <standardized_failed>  (249) 
False

$$$$

     RDKit          2D

 18 19  0  0  0  0  0  0  0  0999 V2000
    2.9292   -1.7500    0.0000 C   0  0  0  0  0  0  0  0  0  0  0  0
    2.1042   -1.7500    0.0000 C   0  0  0  0  0  0  0  0  0  0  0  0
    3.3417   -1.0375    0.0000 C   0  0  0  0  0  0  0  0  0  0  0  0
    3.3417   -2.4667    0.0000 C   0  0  0  0  0  0  0  0  0  0  0  0
    1.6917   -2.4625    0.0000 C   0  0  0  0  0  0  0  0  0  0  0  0
    4.1625   -2.4625    0.0000 C   0  0  0  0  0  0  0  0  0  0  0  0
    2.9250   -3.1792    0.0000 C   0  0  0  0  0  0  0  0  0  0  0  0
    4.1667   -1.0375    0.0000 Cl  0  0  0  0  0  0  0  0  0  0  0  0
    2.9292   -0.3250    0.0000 Cl  0  0  0  0  0  0  0  0  0  0  0  0
    4.1625   -3.8917    0.0000 C   0  0  0  0  0  0  0  0  0  0  0  0
    2.1042   -3.1792    0.0000 Cl  0  0  0  0  0  0  0  0  0  0  0  0
    4.5750   -3.1750    0.0000 C   0  0  0  0  0  0  0  0  0  0  0  0
    3.3375   -3.8917    0.0000 C   0  0  0  0  0  0  0  0  0  0  0  0
    4.5750   -4.6042    0.0000 Cl  0  0  0  0  0  0  0  0  0  0  0  0
    1.6917   -1.0375    0.0000 C   0  0  0  0  0  0  0  0  0  0  0  0
    0.8667   -2.4625    0.0000 C   0  0  0  0  0  0  0  0  0  0  0  0
    0.8667   -1.0417    0.0000 C   0  0  0  0  0  0  0  0  0  0  0  0
    0.4542   -1.7542    0.0000 C   0  0  0  0  0  0  0  0  0  0  0  0
  2  1  1  0
  3  1  1  0
  4  1  1  0
  5  2  2  0
  6  4  2  0
  7  4  1  0
  8  3  1  0
  9  3  1  0
 10 13  1  0
 11  5  1  0
 12  6  1  0
 13  7  2  0
 14 10  1  0
 15  2  1  0
 16  5  1  0
 17 15  2  0
 18 17  1  0
 12 10  2  0
 18 16  2  0
M  END
>  <ID>  (250) 


>  <MOLENAME>  (250) 
MITOTANE

>  <therap>  (250) 
insecticide, antineoplastic

>  <ref>  (250) 
J. Clin. Endocrinol. Metab. (2008), 93(7), 2454-62; Biochem. Med. (1967), 1(3), 280-7; Ann. Intern. Med. (1975), 82(5), 677-9

>  <cas#>  (250) 
53-19-0

>  <source>  (250) 
synthetic; CB-313

>  <status>  (250) 
USP, BAN, JAN

>  <tradename>  (250) 
LYSODREN

>  <SMILES>  (250) 
Clc1ccc(C(c2c(Cl)cccc2)C(Cl)Cl)cc1

>  <standardized_failed>  (250) 
False

$$$$

     RDKit          2D

  6  5  0  0  0  0  0  0  0  0999 V2000
    0.0792   -1.3375    0.0000 S   0  0  0  0  0  0  0  0  0  0  0  0
   -0.5708   -0.9625    0.0000 C   0  0  0  0  0  0  0  0  0  0  0  0
   -1.8708   -0.9625    0.0000 S   0  0  0  0  0  0  0  0  0  0  0  0
   -1.2208    0.1625    0.0000 O   0  0  0  0  0  0  0  0  0  0  0  0
   -1.2208   -1.3375    0.0000 C   0  0  0  0  0  0  0  0  0  0  0  0
   -0.5708   -0.2125    0.0000 C   0  0  0  0  0  0  0  0  0  0  0  0
  2  1  1  0
  3  5  1  0
  4  6  1  0
  5  2  1  0
  6  2  1  0
M  END
>  <ID>  (251) 


>  <MOLENAME>  (251) 
DIMERCAPROL

>  <therap>  (251) 
chelating agent (As, Au, Hg antidote)

>  <ref>  (251) 
Acta Pharmacologica et Toxicologica 11:68 (1955); Nursing Res 11:109 (1962)

>  <cas#>  (251) 
59-52-9

>  <source>  (251) 
synthetic

>  <status>  (251) 
USP, INN, BAN, JAN

>  <tradename>  (251) 
BAL

>  <SMILES>  (251) 
OCC(S)CS

>  <standardized_failed>  (251) 
False

$$$$

     RDKit          2D

 26 28  0  0  0  0  0  0  0  0999 V2000
    4.4000   -1.3250    0.0000 N   0  0  0  0  0  0  0  0  0  0  0  0
    5.1833   -1.0625    0.0000 C   0  0  0  0  0  0  0  0  0  0  0  0
    3.5750   -1.3250    0.0000 C   0  0  0  0  0  0  0  0  0  0  0  0
    5.6750   -1.7292    0.0000 C   0  0  0  0  0  0  0  0  0  0  0  0
    4.4083   -2.1458    0.0000 C   0  0  0  0  0  0  0  0  0  0  0  0
    3.5750   -2.1500    0.0000 C   0  0  0  0  0  0  0  0  0  0  0  0
    5.1917   -2.4000    0.0000 C   0  0  0  0  0  0  0  0  0  0  0  0
    5.4375   -0.2792    0.0000 C   0  0  0  0  0  0  0  0  0  0  0  0
    8.6667   -3.6542    0.0000 C   0  0  0  0  0  0  0  0  0  0  0  0
    7.9083   -3.3208    0.0000 C   0  0  0  0  0  0  0  0  0  0  0  0
    6.5000   -1.7250    0.0000 S   0  0  0  0  0  0  0  0  0  0  0  0
    7.1958   -3.7375    0.0000 N   0  0  0  0  0  0  0  0  0  0  0  0
    7.7333   -2.5167    0.0000 C   0  0  0  0  0  0  0  0  0  0  0  0
    2.9917   -0.7375    0.0000 O   0  0  0  0  0  0  0  0  0  0  0  0
    9.3292   -3.1625    0.0000 N   0  0  0  0  0  0  0  0  0  0  0  0
    6.9167   -2.4375    0.0000 C   0  0  0  0  0  0  0  0  0  0  0  0
    2.9917   -2.7292    0.0000 C   0  0  0  0  0  0  0  0  0  0  0  0
    8.7542   -4.4708    0.0000 O   0  0  0  0  0  0  0  0  0  0  0  0
    4.8792    0.3333    0.0000 O   0  0  0  0  0  0  0  0  0  0  0  0
    6.5792   -3.1875    0.0000 C   0  0  0  0  0  0  0  0  0  0  0  0
    6.2417   -0.1000    0.0000 O   0  0  0  0  0  0  0  0  0  0  0  0
    5.4042   -3.1917    0.0000 C   0  0  0  0  0  0  0  0  0  0  0  0
    2.1958   -2.5167    0.0000 O   0  0  0  0  0  0  0  0  0  0  0  0
   10.0833   -3.4958    0.0000 C   0  0  0  0  0  0  0  0  0  0  0  0
    9.2375   -2.3458    0.0000 C   0  0  0  0  0  0  0  0  0  0  0  0
    3.2083   -3.5292    0.0000 C   0  0  0  0  0  0  0  0  0  0  0  0
  2  1  1  0
  3  1  1  0
  4  2  2  0
  5  1  1  6
  6  3  1  1
  5  7  1  0
  8  2  1  0
 10  9  1  1
 10 13  1  0
 11  4  1  0
 12 20  1  0
 13 16  1  0
 14  3  2  0
 15  9  1  0
 16 11  1  0
  6 17  1  0
 18  9  2  0
 19  8  2  0
 20 16  1  0
 21  8  1  0
  7 22  1  6
 17 23  1  0
 24 15  1  0
 25 15  1  0
 17 26  1  1
  5  6  1  0
  4  7  1  0
 10 12  1  0
M  END
>  <ID>  (252) 


>  <MOLENAME>  (252) 
MEROPENEM

>  <therap>  (252) 
antibacterial

>  <ref>  (252) 
J Antimicrob Chemother 24:Suppl A:1 (1989); J Antibiot 43:519 (1990); Cell Mol Life Sci 59:1928 (2002)

>  <cas#>  (252) 
96036-03-2

>  <source>  (252) 
semisynthetic; ICI-194660; SM-7338

>  <status>  (252) 
USP, INN, BAN

>  <tradename>  (252) 
MERREM

>  <SMILES>  (252) 
C[C@@H](O)[C@H]1C(=O)N2C(C(=O)O)=C(SC3CN[C@H](C(=O)N(C)C)C3)[C@H](C)[C@H]12

>  <standardized_failed>  (252) 
False

$$$$

     RDKit          2D

 33 34  0  0  0  0  0  0  0  0999 V2000
    1.8292   -1.6417    0.0000 C   0  0  0  0  0  0  0  0  0  0  0  0
    1.8292   -0.8042    0.0000 C   0  0  0  0  0  0  0  0  0  0  0  0
    1.1042   -2.0542    0.0000 C   0  0  0  0  0  0  0  0  0  0  0  0
    1.1125   -0.3875    0.0000 C   0  0  0  0  0  0  0  0  0  0  0  0
    0.3917   -0.8042    0.0000 C   0  0  0  0  0  0  0  0  0  0  0  0
    0.3917   -1.6417    0.0000 C   0  0  0  0  0  0  0  0  0  0  0  0
    2.5417   -2.0542    0.0000 C   0  0  0  0  0  0  0  0  0  0  0  0
    3.2542   -1.6417    0.0000 C   0  0  0  0  0  0  0  0  0  0  0  0
    1.1125    0.4375    0.0000 O   0  0  0  0  0  0  0  0  0  0  0  0
    1.1042   -2.8792    0.0000 O   0  0  0  0  0  0  0  0  0  0  0  0
    3.9667   -2.0542    0.0000 C   0  0  0  0  0  0  0  0  0  0  0  0
    2.5500   -0.4000    0.0000 C   0  0  0  0  0  0  0  0  0  0  0  0
   -0.3208   -2.0500    0.0000 C   0  0  0  0  0  0  0  0  0  0  0  0
   -0.3208   -0.3917    0.0000 C   0  0  0  0  0  0  0  0  0  0  0  0
    5.3917   -2.0625    0.0000 C   0  0  0  0  0  0  0  0  0  0  0  0
    8.2417   -2.0667    0.0000 C   0  0  0  0  0  0  0  0  0  0  0  0
   11.0917   -2.0792    0.0000 C   0  0  0  0  0  0  0  0  0  0  0  0
    4.6792   -1.6500    0.0000 C   0  0  0  0  0  0  0  0  0  0  0  0
    3.9667   -2.8792    0.0000 C   0  0  0  0  0  0  0  0  0  0  0  0
   11.8042   -1.6667    0.0000 C   0  0  0  0  0  0  0  0  0  0  0  0
   10.3792   -1.6667    0.0000 C   0  0  0  0  0  0  0  0  0  0  0  0
    7.5292   -1.6542    0.0000 C   0  0  0  0  0  0  0  0  0  0  0  0
    6.1042   -1.6542    0.0000 C   0  0  0  0  0  0  0  0  0  0  0  0
    8.9542   -1.6625    0.0000 C   0  0  0  0  0  0  0  0  0  0  0  0
    6.8167   -2.0667    0.0000 C   0  0  0  0  0  0  0  0  0  0  0  0
    9.6667   -2.0750    0.0000 C   0  0  0  0  0  0  0  0  0  0  0  0
   12.5167   -2.0792    0.0000 C   0  0  0  0  0  0  0  0  0  0  0  0
   -1.0333   -1.6375    0.0000 C   0  0  0  0  0  0  0  0  0  0  0  0
   -1.0333   -0.8125    0.0000 C   0  0  0  0  0  0  0  0  0  0  0  0
   13.2292   -1.6667    0.0000 C   0  0  0  0  0  0  0  0  0  0  0  0
   12.5167   -2.9042    0.0000 C   0  0  0  0  0  0  0  0  0  0  0  0
    9.6667   -2.9000    0.0000 C   0  0  0  0  0  0  0  0  0  0  0  0
    6.8167   -2.8917    0.0000 C   0  0  0  0  0  0  0  0  0  0  0  0
  2  1  2  0
  3  1  1  0
  4  2  1  0
  5  6  2  0
  6  3  1  0
  7  1  1  0
  8  7  1  0
  9  4  2  0
 10  3  2  0
 11  8  2  0
 12  2  1  0
 13  6  1  0
 14  5  1  0
 15 18  1  0
 16 22  1  0
 17 21  1  0
 18 11  1  0
 19 11  1  0
 20 17  1  0
 21 26  1  0
 22 25  1  0
 23 15  1  0
 24 16  1  0
 25 23  1  0
 26 24  1  0
 27 20  1  0
 28 13  2  0
 29 28  1  0
 30 27  1  0
 31 27  1  0
 26 32  1  1
 25 33  1  1
  5  4  1  0
 14 29  2  0
M  END
>  <ID>  (253) 


>  <MOLENAME>  (253) 
PHYTONADIONE

>  <therap>  (253) 
vitamin K1

>  <ref>  (253) 
Arch Dermatol 114:1790 (1978); Arch Inter Med 163:2469 (2003)

>  <cas#>  (253) 
84-80-0

>  <source>  (253) 
semisynthetic

>  <status>  (253) 
USP, INN, BAN

>  <tradename>  (253) 
AQUAMEPHYTON

>  <SMILES>  (253) 
CC1=C(C/C=C(\C)CCC[C@H](C)CCC[C@H](C)CCCC(C)C)C(=O)c2c(cccc2)C1=O

>  <standardized_failed>  (253) 
False

$$$$

     RDKit          2D

  8  8  0  0  0  0  0  0  0  0999 V2000
    5.7792   -4.8750    0.0000 N   0  0  0  0  0  0  0  0  0  0  0  0
    5.7792   -4.0542    0.0000 C   0  0  0  0  0  0  0  0  0  0  0  0
    6.4917   -5.2917    0.0000 C   0  0  0  0  0  0  0  0  0  0  0  0
    7.2042   -4.8792    0.0000 C   0  0  0  0  0  0  0  0  0  0  0  0
    6.4958   -3.6458    0.0000 N   0  0  0  0  0  0  0  0  0  0  0  0
    7.2083   -4.0542    0.0000 C   0  0  0  0  0  0  0  0  0  0  0  0
    5.0667   -3.6375    0.0000 O   0  0  0  0  0  0  0  0  0  0  0  0
    6.4875   -6.1167    0.0000 O   0  0  0  0  0  0  0  0  0  0  0  0
  2  1  1  0
  3  1  1  0
  4  3  1  0
  5  2  1  0
  6  4  2  0
  7  2  2  0
  8  3  2  0
  6  5  1  0
M  END
>  <ID>  (254) 


>  <MOLENAME>  (254) 
URACIL

>  <therap>  (254) 
antineoplastic

>  <ref>  (254) 
JACS 63:263 (1941); Science 133:1923 (1961)

>  <cas#>  (254) 
66-22-8

>  <source>  (254) 
synthetic; SQ-6201

>  <status>  (254) 
USAN, JAN

>  <tradename>  (254) 
nan

>  <SMILES>  (254) 
O=c1cc[nH]c(=O)[nH]1

>  <standardized_failed>  (254) 
False

$$$$

     RDKit          2D

 20 23  0  0  0  0  0  0  0  0999 V2000
    3.6917  -10.3667    0.0000 C   0  0  0  0  0  0  0  0  0  0  0  0
    4.3500   -9.2375    0.0000 C   0  0  0  0  0  0  0  0  0  0  0  0
    4.3500   -9.9917    0.0000 C   0  0  0  0  0  0  0  0  0  0  0  0
    3.0500   -9.9917    0.0000 C   0  0  0  0  0  0  0  0  0  0  0  0
    2.4000  -10.3667    0.0000 C   0  0  0  0  0  0  0  0  0  0  0  0
    3.6917  -11.1167    0.0000 C   0  0  0  0  0  0  0  0  0  0  0  0
    2.4000  -11.1167    0.0000 C   0  0  0  0  0  0  0  0  0  0  0  0
    5.0042   -8.8542    0.0000 C   0  0  0  0  0  0  0  0  0  0  0  0
    3.6917   -8.8542    0.0000 C   0  0  0  0  0  0  0  0  0  0  0  0
    3.0500   -9.2375    0.0000 C   0  0  0  0  0  0  0  0  0  0  0  0
    5.6542   -9.9917    0.0000 C   0  0  0  0  0  0  0  0  0  0  0  0
    1.7500   -9.9917    0.0000 C   0  0  0  0  0  0  0  0  0  0  0  0
    3.0500  -11.4917    0.0000 C   0  0  0  0  0  0  0  0  0  0  0  0
    1.7500  -11.4917    0.0000 C   0  0  0  0  0  0  0  0  0  0  0  0
    5.6542   -9.2375    0.0000 C   0  0  0  0  0  0  0  0  0  0  0  0
    5.0042   -8.1042    0.0000 O   0  0  0  0  0  0  0  0  0  0  0  0
    1.1000  -11.1167    0.0000 C   0  0  0  0  0  0  0  0  0  0  0  0
    1.1000  -10.3667    0.0000 C   0  0  0  0  0  0  0  0  0  0  0  0
    4.3625   -8.3292    0.0000 C   0  0  0  0  0  0  0  0  0  0  0  0
    0.4500  -11.4917    0.0000 O   0  0  0  0  0  0  0  0  0  0  0  0
  2  3  1  0
  3  1  1  0
  4  1  1  0
  5  4  1  0
  6  1  2  0
  7 13  1  0
  8  2  1  0
  9 10  1  0
 10  4  1  0
 11  3  1  0
 12  5  2  0
 13  6  1  0
 14  7  2  0
 15 11  1  0
 16  8  2  0
 17 14  1  0
 18 12  1  0
 19  2  1  0
 20 17  1  0
  7  5  1  0
  9  2  1  0
  8 15  1  0
 17 18  2  0
M  END
>  <ID>  (255) 


>  <MOLENAME>  (255) 
EQUILIN

>  <therap>  (255) 
estrogen

>  <ref>  (255) 
Lancet (1980), 1(8158), 14-16; Symp. Dtsch. Ges. Endokrinol. (1969), No. 15, 142-4; Steroids (1969), 13(2), 163-77

>  <cas#>  (255) 
474-86-2

>  <source>  (255) 
pregnant mare urine

>  <status>  (255) 
USP

>  <tradename>  (255) 
nan

>  <SMILES>  (255) 
CC12CCC3C(=CCc4cc(O)ccc43)C1CCC2=O

>  <standardized_failed>  (255) 
False

$$$$

     RDKit          2D

 42 42  0  0  0  0  0  0  0  0999 V2000
    0.9833   -4.5792    0.0000 C   0  0  0  0  0  0  0  0  0  0  0  0
    0.2708   -4.9958    0.0000 C   0  0  0  0  0  0  0  0  0  0  0  0
    0.9792   -3.7542    0.0000 O   0  0  0  0  0  0  0  0  0  0  0  0
    0.2708   -5.8250    0.0000 C   0  0  0  0  0  0  0  0  0  0  0  0
   -0.4458   -4.5833    0.0000 C   0  0  0  0  0  0  0  0  0  0  0  0
   -1.1583   -5.8250    0.0000 C   0  0  0  0  0  0  0  0  0  0  0  0
   -1.8750   -6.2375    0.0000 N   0  0  0  0  0  0  0  0  0  0  0  0
    1.7000   -4.9875    0.0000 O   0  0  0  0  0  0  0  0  0  0  0  0
   -0.4458   -6.2375    0.0000 C   0  0  0  0  0  0  0  0  0  0  0  0
   -1.1583   -5.0000    0.0000 C   0  0  0  0  0  0  0  0  0  0  0  0
    3.1250   -5.7792    0.0000 O   0  0  0  0  0  0  0  0  0  0  0  0
    5.9750   -4.9875    0.0000 O   0  0  0  0  0  0  0  0  0  0  0  0
    8.1125   -4.5750    0.0000 O   0  0  0  0  0  0  0  0  0  0  0  0
   10.2500   -4.9875    0.0000 O   0  0  0  0  0  0  0  0  0  0  0  0
   11.6750   -5.8042    0.0000 O   0  0  0  0  0  0  0  0  0  0  0  0
    9.5375   -6.2125    0.0000 O   0  0  0  0  0  0  0  0  0  0  0  0
    7.4000   -5.7917    0.0000 O   0  0  0  0  0  0  0  0  0  0  0  0
    5.2625   -6.2000    0.0000 O   0  0  0  0  0  0  0  0  0  0  0  0
    3.8375   -4.5750    0.0000 O   0  0  0  0  0  0  0  0  0  0  0  0
   -2.5875   -5.8250    0.0000 C   0  0  0  0  0  0  0  0  0  0  0  0
    2.4125   -4.5750    0.0000 C   0  0  0  0  0  0  0  0  0  0  0  0
    3.8375   -6.1917    0.0000 C   0  0  0  0  0  0  0  0  0  0  0  0
   10.9583   -4.5750    0.0000 C   0  0  0  0  0  0  0  0  0  0  0  0
   11.6750   -4.9875    0.0000 C   0  0  0  0  0  0  0  0  0  0  0  0
    3.1250   -4.9875    0.0000 C   0  0  0  0  0  0  0  0  0  0  0  0
    6.6875   -4.5750    0.0000 C   0  0  0  0  0  0  0  0  0  0  0  0
   10.9583   -6.2167    0.0000 C   0  0  0  0  0  0  0  0  0  0  0  0
   10.2500   -5.8042    0.0000 C   0  0  0  0  0  0  0  0  0  0  0  0
    7.4000   -4.9875    0.0000 C   0  0  0  0  0  0  0  0  0  0  0  0
    8.8250   -5.8000    0.0000 C   0  0  0  0  0  0  0  0  0  0  0  0
    8.1125   -6.2042    0.0000 C   0  0  0  0  0  0  0  0  0  0  0  0
    4.5500   -4.9875    0.0000 C   0  0  0  0  0  0  0  0  0  0  0  0
    6.6875   -6.2042    0.0000 C   0  0  0  0  0  0  0  0  0  0  0  0
    5.9750   -5.7917    0.0000 C   0  0  0  0  0  0  0  0  0  0  0  0
    8.8250   -4.9875    0.0000 C   0  0  0  0  0  0  0  0  0  0  0  0
    4.5500   -5.7875    0.0000 C   0  0  0  0  0  0  0  0  0  0  0  0
    9.5375   -4.5750    0.0000 C   0  0  0  0  0  0  0  0  0  0  0  0
    5.2625   -4.5750    0.0000 C   0  0  0  0  0  0  0  0  0  0  0  0
    2.4125   -6.1917    0.0000 C   0  0  0  0  0  0  0  0  0  0  0  0
   -3.3000   -6.2375    0.0000 C   0  0  0  0  0  0  0  0  0  0  0  0
   -4.0167   -5.8250    0.0000 C   0  0  0  0  0  0  0  0  0  0  0  0
   -4.7250   -6.2375    0.0000 C   0  0  0  0  0  0  0  0  0  0  0  0
  2  1  1  0
  3  1  2  0
  4  2  2  0
  5  2  1  0
  6  9  2  0
  7  6  1  0
  8  1  1  0
  9  4  1  0
 10  5  2  0
 11 22  1  0
 12 38  1  0
 13 29  1  0
 14 37  1  0
 15 24  1  0
 16 28  1  0
 17 31  1  0
 18 34  1  0
 19 25  1  0
 20  7  1  0
 21  8  1  0
 22 36  1  0
 23 14  1  0
 24 23  1  0
 25 21  1  0
 26 12  1  0
 27 15  1  0
 28 27  1  0
 29 26  1  0
 30 16  1  0
 31 30  1  0
 32 19  1  0
 33 17  1  0
 34 33  1  0
 35 13  1  0
 36 18  1  0
 37 35  1  0
 38 32  1  0
 39 11  1  0
 40 20  1  0
 41 40  1  0
 42 41  1  0
  6 10  1  0
M  END
>  <ID>  (256) 


>  <MOLENAME>  (256) 
BENZONATATE

>  <therap>  (256) 
antitussive

>  <ref>  (256) 
J Toxicol Clin Toxicol 36:713 (1998); J Emergency Med 41:166 (2011)

>  <cas#>  (256) 
104-31-4

>  <source>  (256) 
synthetic

>  <status>  (256) 
USP, INN, BAN

>  <tradename>  (256) 
TESSALON

>  <SMILES>  (256) 
CCCCNc1ccc(C(=O)OCCOCCOCCOCCOCCOCCOCCOCCOCCOC)cc1

>  <standardized_failed>  (256) 
False

$$$$

     RDKit          2D

 13 13  0  0  0  0  0  0  0  0999 V2000
   10.4792   -6.9417    0.0000 C   0  0  0  0  0  0  0  0  0  0  0  0
    9.6917   -6.6917    0.0000 S   0  0  0  0  0  0  0  0  0  0  0  0
   11.1542   -6.4625    0.0000 S   0  0  0  0  0  0  0  0  0  0  0  0
   11.8250   -6.9542    0.0000 C   0  0  0  0  0  0  0  0  0  0  0  0
   10.7375   -7.7292    0.0000 N   0  0  0  0  0  0  0  0  0  0  0  0
   11.5542   -7.7292    0.0000 N   0  0  0  0  0  0  0  0  0  0  0  0
   12.6167   -6.7167    0.0000 N   0  0  0  0  0  0  0  0  0  0  0  0
   12.8125   -5.9125    0.0000 C   0  0  0  0  0  0  0  0  0  0  0  0
    9.9500   -5.9042    0.0000 O   0  0  0  0  0  0  0  0  0  0  0  0
    9.4417   -7.4792    0.0000 O   0  0  0  0  0  0  0  0  0  0  0  0
    8.9042   -6.4375    0.0000 N   0  0  0  0  0  0  0  0  0  0  0  0
   12.2125   -5.3417    0.0000 O   0  0  0  0  0  0  0  0  0  0  0  0
   13.6042   -5.6750    0.0000 C   0  0  0  0  0  0  0  0  0  0  0  0
  2  1  1  0
  3  1  1  0
  4  3  1  0
  5  1  2  0
  6  5  1  0
  7  4  1  0
  8  7  1  0
  9  2  2  0
 10  2  2  0
 11  2  1  0
 12  8  2  0
 13  8  1  0
  4  6  2  0
M  END
>  <ID>  (257) 


>  <MOLENAME>  (257) 
ACETAZOLAMIDE

>  <therap>  (257) 
carbonic anhydrase inhibitor, diuretic, antiglaucoma

>  <ref>  (257) 
Br J Opthalmol77:136 (1993); J Wilderness Med 5:34 (1994)

>  <cas#>  (257) 
59-66-5

>  <source>  (257) 
synthetic; 6063

>  <status>  (257) 
USP, INN, BAN, JAN

>  <tradename>  (257) 
ACETAMOX

>  <SMILES>  (257) 
CC(=O)Nc1nnc(S(N)(=O)=O)s1

>  <standardized_failed>  (257) 
False

$$$$

     RDKit          2D

  5  4  0  0  0  0  0  0  0  0999 V2000
    2.9250   -2.0500    0.0000 C   0  0  0  0  0  0  0  0  0  0  0  0
    2.7250   -1.3292    0.0000 O   0  0  0  0  0  0  0  0  0  0  0  0
    3.6417   -2.2417    0.0000 N   0  0  0  0  0  0  0  0  0  0  0  0
    4.1667   -1.7125    0.0000 O   0  0  0  0  0  0  0  0  0  0  0  0
    2.4000   -2.5792    0.0000 C   0  0  0  0  0  0  0  0  0  0  0  0
  2  1  2  0
  3  1  1  0
  4  3  1  0
  5  1  1  0
M  END
>  <ID>  (258) 


>  <MOLENAME>  (258) 
ACETOHYDROXAMIC ACID

>  <therap>  (258) 
urease inhibitor, antiurolithic, antbacterial

>  <ref>  (258) 
J Pharmacol Exp Ther 186:173 (1973); J Urol 119:9 (1978); Urology17:320 (1981)

>  <cas#>  (258) 
546-88-3

>  <source>  (258) 
synthetic

>  <status>  (258) 
USP, INN

>  <tradename>  (258) 
LITHOSTAT

>  <SMILES>  (258) 
CC(=O)NO

>  <standardized_failed>  (258) 
False

$$$$

     RDKit          2D

 11  9  0  0  0  0  0  0  0  0999 V2000
    1.8417   -3.1292    0.0000 N   0  0  0  0  0  0  0  0  0  0  0  0
    0.0000   -1.3042    0.0000 C   0  0  0  0  0  0  0  0  0  0  0  0
    2.1417   -1.5250    0.0000 Cl  0  0  0  0  0  0  0  0  0  0  0  0
   -0.2000   -0.5792    0.0000 O   0  0  0  0  0  0  0  0  0  0  0  0
    0.7167   -1.4917    0.0000 O   0  0  0  0  0  0  0  0  0  0  0  0
    0.9167   -2.2167    0.0000 C   0  0  0  0  0  0  0  0  0  0  0  0
    1.6417   -2.4042    0.0000 C   0  0  0  0  0  0  0  0  0  0  0  0
    2.5667   -2.9167    0.0000 C   0  0  0  0  0  0  0  0  0  0  0  0
    2.0417   -3.8542    0.0000 C   0  0  0  0  0  0  0  0  0  0  0  0
    1.1167   -3.3292    0.0000 C   0  0  0  0  0  0  0  0  0  0  0  0
   -0.5333   -1.8292    0.0000 C   0  0  0  0  0  0  0  0  0  0  0  0
  2  5  1  0
  4  2  2  0
  5  6  1  0
  6  7  1  0
  7  1  1  0
  8  1  1  0
  9  1  1  0
 10  1  1  0
 11  2  1  0
M  CHG  2   1   1   3  -1
M  END
>  <ID>  (259) 


>  <MOLENAME>  (259) 
ACETYLCHOLINE CHLORIDE

>  <therap>  (259) 
cholinergic, antiarrhythmic, miotic, vasodilator (peripheral)

>  <ref>  (259) 
J Pharmacol Exp Ther 58:337 (1936)

>  <cas#>  (259) 
60-31-1, 51-84-3 [acetylcholine]

>  <source>  (259) 
synthetic

>  <status>  (259) 
USP

>  <tradename>  (259) 
ACECOLINE

>  <SMILES>  (259) 
CC(=O)OCC[N+](C)(C)C

>  <standardized_failed>  (259) 
False

$$$$

     RDKit          2D

 10  9  0  0  0  0  0  0  0  0999 V2000
    2.5417   -3.5167    0.0000 C   0  0  0  0  0  0  0  0  0  0  0  0
    2.0167   -4.0417    0.0000 C   0  0  0  0  0  0  0  0  0  0  0  0
    3.0750   -4.0500    0.0000 N   0  0  0  0  0  0  0  0  0  0  0  0
    4.0792   -4.0542    0.0000 C   0  0  0  0  0  0  0  0  0  0  0  0
    2.2167   -4.7667    0.0000 O   0  0  0  0  0  0  0  0  0  0  0  0
    4.3792   -3.3667    0.0000 O   0  0  0  0  0  0  0  0  0  0  0  0
    1.3000   -3.8542    0.0000 O   0  0  0  0  0  0  0  0  0  0  0  0
    1.3000   -3.1792    0.0000 S   0  0  0  0  0  0  0  0  0  0  0  0
    2.0167   -2.9917    0.0000 C   0  0  0  0  0  0  0  0  0  0  0  0
    4.5875   -4.6000    0.0000 C   0  0  0  0  0  0  0  0  0  0  0  0
  1  2  1  0
  3  1  1  0
  4  3  1  0
  5  2  2  0
  6  4  2  0
  7  2  1  0
  8  9  1  0
  1  9  1  1
 10  4  1  0
M  END
>  <ID>  (260) 


>  <MOLENAME>  (260) 
ACETYLCYSTEINE

>  <therap>  (260) 
mucolytic

>  <ref>  (260) 
Toxicol Appl Pharmacol 18:185 (1971); Am J Med 91 Suppl 3C:131S (1991)

>  <cas#>  (260) 
616-91-1

>  <source>  (260) 
synthetic

>  <status>  (260) 
USP, INN, BAN, JAN

>  <tradename>  (260) 
MUCOMYST

>  <SMILES>  (260) 
CC(=O)N[C@H](CS)C(=O)O

>  <standardized_failed>  (260) 
False

$$$$

     RDKit          2D

 19 21  0  0  0  0  0  0  0  0999 V2000
    1.5417    1.4625    0.0000 N   0  0  0  0  0  0  0  0  0  0  0  0
    1.5417    0.1208    0.0000 C   0  0  0  0  0  0  0  0  0  0  0  0
    0.9000    1.6833    0.0000 C   0  0  0  0  0  0  0  0  0  0  0  0
    0.9000    2.4333    0.0000 C   0  0  0  0  0  0  0  0  0  0  0  0
    1.5417    2.6583    0.0000 N   0  0  0  0  0  0  0  0  0  0  0  0
    1.3125   -0.5625    0.0000 C   0  0  0  0  0  0  0  0  0  0  0  0
    1.9375    2.0833    0.0000 C   0  0  0  0  0  0  0  0  0  0  0  0
    0.9375    0.6583    0.0000 O   0  0  0  0  0  0  0  0  0  0  0  0
    0.6292   -0.5625    0.0000 C   0  0  0  0  0  0  0  0  0  0  0  0
    0.4167    0.1208    0.0000 C   0  0  0  0  0  0  0  0  0  0  0  0
    0.3167    2.7875    0.0000 C   0  0  0  0  0  0  0  0  0  0  0  0
    0.2292    1.2833    0.0000 N   0  0  0  0  0  0  0  0  0  0  0  0
   -0.2708    2.4333    0.0000 N   0  0  0  0  0  0  0  0  0  0  0  0
   -0.2708    1.7208    0.0000 C   0  0  0  0  0  0  0  0  0  0  0  0
    1.6792   -1.1875    0.0000 O   0  0  0  0  0  0  0  0  0  0  0  0
    0.3417    3.5958    0.0000 N   0  0  0  0  0  0  0  0  0  0  0  0
    0.2125   -1.2167    0.0000 O   0  0  0  0  0  0  0  0  0  0  0  0
   -0.0500    0.5333    0.0000 C   0  0  0  0  0  0  0  0  0  0  0  0
   -0.6125    0.5333    0.0000 O   0  0  0  0  0  0  0  0  0  0  0  0
  2  1  1  1
  3  1  1  0
  4  3  2  0
  5  7  2  0
  6  2  1  0
  7  1  1  0
  8  2  1  0
  9  6  1  0
 10  8  1  0
 11  4  1  0
 12  3  1  0
 13 14  1  0
 14 12  2  0
  6 15  1  6
 16 11  1  0
  9 17  1  6
 10 18  1  1
 19 18  1  0
  4  5  1  0
  9 10  1  0
 13 11  2  0
M  END
>  <ID>  (261) 


>  <MOLENAME>  (261) 
ADENOSINE

>  <therap>  (261) 
antiarrhythmic, cardiac depressant 

>  <ref>  (261) 
J Physiol 68:213 (1930); Prog Clin Biores 230:1 (1987)

>  <cas#>  (261) 
58-61-7

>  <source>  (261) 
widespread in living tissue

>  <status>  (261) 
USP, BAN

>  <tradename>  (261) 
ADENOCARD

>  <SMILES>  (261) 
Nc1ncnc2c1ncn2[C@@H]1O[C@H](CO)[C@@H](O)[C@H]1O

>  <standardized_failed>  (261) 
False

$$$$

     RDKit          2D

 10 11  0  0  0  0  0  0  0  0999 V2000
    5.8167   -3.5167    0.0000 C   0  0  0  0  0  0  0  0  0  0  0  0
    5.8125   -2.6917    0.0000 C   0  0  0  0  0  0  0  0  0  0  0  0
    5.0917   -2.2792    0.0000 N   0  0  0  0  0  0  0  0  0  0  0  0
    5.0917   -3.9292    0.0000 C   0  0  0  0  0  0  0  0  0  0  0  0
    7.0875   -3.0917    0.0000 N   0  0  0  0  0  0  0  0  0  0  0  0
    4.3792   -3.5167    0.0000 N   0  0  0  0  0  0  0  0  0  0  0  0
    6.5917   -2.4292    0.0000 N   0  0  0  0  0  0  0  0  0  0  0  0
    4.3792   -2.6917    0.0000 C   0  0  0  0  0  0  0  0  0  0  0  0
    6.6042   -3.7667    0.0000 C   0  0  0  0  0  0  0  0  0  0  0  0
    5.0917   -4.7542    0.0000 O   0  0  0  0  0  0  0  0  0  0  0  0
  2  1  2  0
  3  2  1  0
  4  1  1  0
  5  9  2  0
  6  4  1  0
  7  2  1  0
  8  6  1  0
  9  1  1  0
 10  4  2  0
  7  5  1  0
  8  3  2  0
M  END
>  <ID>  (262) 


>  <MOLENAME>  (262) 
ALLOPURINOL

>  <therap>  (262) 
antihyperuricemia, antigout,  antiurolithic

>  <ref>  (262) 
J Urol 117:690 (1970); N Engl J Med 300:1459 (1977); 315:1386 (1986)

>  <cas#>  (262) 
315-30-0

>  <source>  (262) 
synthetic

>  <status>  (262) 
USP, INN, BAN, JAN

>  <tradename>  (262) 
ZYLOPRIM

>  <SMILES>  (262) 
O=c1[nH]cnc2c1cn[nH]2

>  <standardized_failed>  (262) 
False

$$$$

     RDKit          2D

 34 34  0  0  0  0  0  0  0  0999 V2000
    9.4125   -4.4042    0.0000 C   0  0  0  0  0  0  0  0  0  0  0  0
    9.0875   -4.9667    0.0000 C   0  0  0  0  0  0  0  0  0  0  0  0
    9.0875   -3.8417    0.0000 C   0  0  0  0  0  0  0  0  0  0  0  0
   10.0625   -4.4042    0.0000 C   0  0  0  0  0  0  0  0  0  0  0  0
    9.4125   -3.2792    0.0000 C   0  0  0  0  0  0  0  0  0  0  0  0
    9.4125   -5.5292    0.0000 C   0  0  0  0  0  0  0  0  0  0  0  0
   10.3875   -3.8417    0.0000 O   0  0  0  0  0  0  0  0  0  0  0  0
    9.0917   -6.0917    0.0000 O   0  0  0  0  0  0  0  0  0  0  0  0
    9.0875   -2.7167    0.0000 O   0  0  0  0  0  0  0  0  0  0  0  0
    8.7625   -4.4042    0.0000 O   0  0  0  0  0  0  0  0  0  0  0  0
   10.3875   -4.9667    0.0000 O   0  0  0  0  0  0  0  0  0  0  0  0
    4.8500   -3.5542    0.0000 N   0  0  0  0  0  0  0  0  0  0  0  0
   10.0625   -3.2792    0.0000 O   0  0  0  0  0  0  0  0  0  0  0  0
   10.0667   -5.5292    0.0000 O   0  0  0  0  0  0  0  0  0  0  0  0
    7.1042   -2.2667    0.0000 C   0  0  0  0  0  0  0  0  0  0  0  0
    2.6042   -4.8417    0.0000 C   0  0  0  0  0  0  0  0  0  0  0  0
    3.7250   -4.2042    0.0000 C   0  0  0  0  0  0  0  0  0  0  0  0
    5.9792   -2.9042    0.0000 C   0  0  0  0  0  0  0  0  0  0  0  0
    5.6042   -3.5542    0.0000 C   0  0  0  0  0  0  0  0  0  0  0  0
    4.4750   -4.2042    0.0000 C   0  0  0  0  0  0  0  0  0  0  0  0
    6.7292   -2.9042    0.0000 C   0  0  0  0  0  0  0  0  0  0  0  0
    3.3542   -4.8417    0.0000 C   0  0  0  0  0  0  0  0  0  0  0  0
    4.4792   -2.9042    0.0000 C   0  0  0  0  0  0  0  0  0  0  0  0
    2.2292   -5.4917    0.0000 C   0  0  0  0  0  0  0  0  0  0  0  0
    7.8542   -2.2667    0.0000 C   0  0  0  0  0  0  0  0  0  0  0  0
    2.2292   -4.2042    0.0000 C   0  0  0  0  0  0  0  0  0  0  0  0
    6.7292   -1.6167    0.0000 C   0  0  0  0  0  0  0  0  0  0  0  0
    3.7292   -2.9167    0.0000 C   0  0  0  0  0  0  0  0  0  0  0  0
    7.1042   -0.9667    0.0000 C   0  0  0  0  0  0  0  0  0  0  0  0
    1.4792   -5.4917    0.0000 C   0  0  0  0  0  0  0  0  0  0  0  0
    1.4792   -4.2042    0.0000 C   0  0  0  0  0  0  0  0  0  0  0  0
    8.2292   -1.6167    0.0000 C   0  0  0  0  0  0  0  0  0  0  0  0
    1.1042   -4.8417    0.0000 C   0  0  0  0  0  0  0  0  0  0  0  0
    7.8542   -0.9667    0.0000 C   0  0  0  0  0  0  0  0  0  0  0  0
  2  1  1  0
  3  1  1  0
  4  1  1  0
  5  3  1  0
  6  2  1  0
  7  4  2  0
  8  6  2  0
  9  5  2  0
 10  1  1  0
 11  4  1  0
 13  5  1  0
 14  6  1  0
 15 21  1  0
 16 22  1  0
 17 20  1  0
 18 19  1  0
 19 12  1  0
 20 12  1  0
 21 18  1  0
 22 17  1  0
 23 12  1  0
 24 16  2  0
 25 15  2  0
 26 16  1  0
 27 15  1  0
 28 23  1  0
 29 27  2  0
 30 24  1  0
 31 26  2  0
 32 25  1  0
 33 31  1  0
 34 29  1  0
 33 30  2  0
 32 34  2  0
M  END
>  <ID>  (263) 


>  <MOLENAME>  (263) 
ALVERINE CITRATE

>  <therap>  (263) 
anticholinergic

>  <ref>  (263) 
Br J Clin Pract 40:276 (1985)

>  <cas#>  (263) 
5560-59-8, 150-59-4 [alverine]

>  <source>  (263) 
synthetic

>  <status>  (263) 
USAN, INN, BAN

>  <tradename>  (263) 
SPASMAVERINE

>  <SMILES>  (263) 
CCN(CCCc1ccccc1)CCCc1ccccc1

>  <standardized_failed>  (263) 
False

$$$$

     RDKit          2D

 12 13  0  0  0  0  0  0  0  0999 V2000
    4.7667   -1.2917    0.0000 C   0  0  0  0  0  0  0  0  0  0  0  0
    7.7625   -0.2500    0.0000 C   0  0  0  0  0  0  0  0  0  0  0  0
    6.3542   -0.8125    0.0000 C   0  0  0  0  0  0  0  0  0  0  0  0
    7.6042   -2.6167    0.0000 C   0  0  0  0  0  0  0  0  0  0  0  0
    5.6750   -0.3750    0.0000 C   0  0  0  0  0  0  0  0  0  0  0  0
    5.5167    0.7500    0.0000 C   0  0  0  0  0  0  0  0  0  0  0  0
    5.8000   -2.9042    0.0000 C   0  0  0  0  0  0  0  0  0  0  0  0
    3.5792   -1.3042    0.0000 N   0  0  0  0  0  0  0  0  0  0  0  0
    8.1375   -1.5625    0.0000 C   0  0  0  0  0  0  0  0  0  0  0  0
    6.7667   -0.1250    0.0000 C   0  0  0  0  0  0  0  0  0  0  0  0
    6.4792   -2.0542    0.0000 C   0  0  0  0  0  0  0  0  0  0  0  0
    2.1792   -1.5625    0.0000 Cl  0  0  0  0  0  0  0  0  0  0  0  0
  2  6  1  0
  3  5  1  0
  4  7  1  0
  5  1  1  0
  6  1  1  0
  7  1  1  0
  8  1  1  0
  9  4  1  0
 10  2  1  0
 11  4  1  0
 11  3  1  0
  9  2  1  0
 10  3  1  0
M  END
>  <ID>  (264) 


>  <MOLENAME>  (264) 
AMANTADINE HYDROCHLORIDE

>  <therap>  (264) 
antiviral, antiparkinsonian; treatment of drug-induced extrapyrimidal reactions

>  <ref>  (264) 
Toxicol Appl Pharmacol 15:642 (1967); J Neural Transm 43 Suppl:91 (1994); 46 Suppl:399 (1995)

>  <cas#>  (264) 
665-66-7, 768-94-5 [amantadine]

>  <source>  (264) 
synthetic

>  <status>  (264) 
USP, INN, BAN

>  <tradename>  (264) 
SYMADINE

>  <SMILES>  (264) 
NC12CC3CC(CC(C3)C1)C2

>  <standardized_failed>  (264) 
False

$$$$

     RDKit          2D

 50 50  0  0  0  0  0  0  0  0999 V2000
    5.9667   -2.6292    0.0000 C   0  0  0  0  0  0  0  0  0  0  0  0
    4.0000   -5.8667    0.0000 C   0  0  0  0  0  0  0  0  0  0  0  0
    6.3875   -4.1792    0.0000 C   0  0  0  0  0  0  0  0  0  0  0  0
    8.7250   -1.6000    0.0000 S   0  0  0  0  0  0  0  0  0  0  0  0
    2.1917   -2.6542    0.0000 S   0  0  0  0  0  0  0  0  0  0  0  0
    5.6750   -5.4167    0.0000 C   0  0  0  0  0  0  0  0  0  0  0  0
    5.1500   -2.6292    0.0000 C   0  0  0  0  0  0  0  0  0  0  0  0
    3.5875   -6.5792    0.0000 C   0  0  0  0  0  0  0  0  0  0  0  0
    5.6750   -4.5917    0.0000 C   0  0  0  0  0  0  0  0  0  0  0  0
    4.7375   -1.9042    0.0000 C   0  0  0  0  0  0  0  0  0  0  0  0
    2.7542   -6.5792    0.0000 C   0  0  0  0  0  0  0  0  0  0  0  0
    7.1042   -4.5917    0.0000 C   0  0  0  0  0  0  0  0  0  0  0  0
    6.3917   -1.9167    0.0000 O   0  0  0  0  0  0  0  0  0  0  0  0
    3.5875   -5.1542    0.0000 O   0  0  0  0  0  0  0  0  0  0  0  0
    6.3792   -3.3542    0.0000 O   0  0  0  0  0  0  0  0  0  0  0  0
    4.8250   -5.8667    0.0000 O   0  0  0  0  0  0  0  0  0  0  0  0
    5.1542   -1.2000    0.0000 C   0  0  0  0  0  0  0  0  0  0  0  0
    2.3417   -5.8667    0.0000 C   0  0  0  0  0  0  0  0  0  0  0  0
    2.7542   -5.1542    0.0000 C   0  0  0  0  0  0  0  0  0  0  0  0
    5.9792   -1.2000    0.0000 C   0  0  0  0  0  0  0  0  0  0  0  0
    7.8292   -4.1750    0.0000 N   0  0  0  0  0  0  0  0  0  0  0  0
    8.4042   -4.7417    0.0000 C   0  0  0  0  0  0  0  0  0  0  0  0
    6.3917   -5.8292    0.0000 C   0  0  0  0  0  0  0  0  0  0  0  0
    7.1042   -5.4167    0.0000 C   0  0  0  0  0  0  0  0  0  0  0  0
    9.4042   -1.6000    0.0000 O   0  0  0  0  0  0  0  0  0  0  0  0
    8.0417   -1.6000    0.0000 O   0  0  0  0  0  0  0  0  0  0  0  0
    2.8792   -2.6542    0.0000 O   0  0  0  0  0  0  0  0  0  0  0  0
    1.5167   -2.6542    0.0000 O   0  0  0  0  0  0  0  0  0  0  0  0
    7.9917   -5.4417    0.0000 O   0  0  0  0  0  0  0  0  0  0  0  0
    8.7250   -2.2792    0.0000 O   0  0  0  0  0  0  0  0  0  0  0  0
    8.7250   -0.9250    0.0000 O   0  0  0  0  0  0  0  0  0  0  0  0
    2.1917   -3.3292    0.0000 O   0  0  0  0  0  0  0  0  0  0  0  0
    2.1917   -1.9792    0.0000 O   0  0  0  0  0  0  0  0  0  0  0  0
    3.9042   -1.9000    0.0000 N   0  0  0  0  0  0  0  0  0  0  0  0
    9.2292   -4.7417    0.0000 C   0  0  0  0  0  0  0  0  0  0  0  0
    4.7292   -3.3542    0.0000 O   0  0  0  0  0  0  0  0  0  0  0  0
    4.0042   -7.3042    0.0000 O   0  0  0  0  0  0  0  0  0  0  0  0
    4.9542   -4.1667    0.0000 O   0  0  0  0  0  0  0  0  0  0  0  0
    2.3375   -7.3042    0.0000 O   0  0  0  0  0  0  0  0  0  0  0  0
    6.3917   -6.6542    0.0000 N   0  0  0  0  0  0  0  0  0  0  0  0
    4.7417   -0.4792    0.0000 O   0  0  0  0  0  0  0  0  0  0  0  0
    1.5167   -5.8667    0.0000 O   0  0  0  0  0  0  0  0  0  0  0  0
    2.3375   -4.4292    0.0000 C   0  0  0  0  0  0  0  0  0  0  0  0
    6.4000   -0.4792    0.0000 C   0  0  0  0  0  0  0  0  0  0  0  0
    9.6375   -4.0417    0.0000 C   0  0  0  0  0  0  0  0  0  0  0  0
    1.5042   -4.4375    0.0000 N   0  0  0  0  0  0  0  0  0  0  0  0
   10.8750   -3.3417    0.0000 N   0  0  0  0  0  0  0  0  0  0  0  0
    9.6417   -5.4625    0.0000 O   0  0  0  0  0  0  0  0  0  0  0  0
    5.9792    0.2333    0.0000 O   0  0  0  0  0  0  0  0  0  0  0  0
   10.4667   -4.0417    0.0000 C   0  0  0  0  0  0  0  0  0  0  0  0
  2 16  1  6
  3 15  1  1
  6  9  1  0
  7  1  1  0
  8  2  1  0
  9  3  1  0
 10  7  1  0
 11  8  1  0
 12  3  1  0
 13  1  1  0
 14  2  1  0
  1 15  1  6
  6 16  1  1
 17 10  1  0
 18 11  1  0
 19 14  1  0
 20 13  1  0
 12 21  1  6
 22 21  1  0
 23  6  1  0
 24 12  1  0
 25  4  2  0
 26  4  2  0
 27  5  2  0
 28  5  2  0
 29 22  2  0
 30  4  1  0
 31  4  1  0
 32  5  1  0
 33  5  1  0
 10 34  1  1
 35 22  1  0
 36  7  1  0
  8 37  1  6
  9 38  1  6
 11 39  1  1
 23 40  1  6
 17 41  1  6
 18 42  1  6
 19 43  1  1
 20 44  1  1
 45 35  1  0
 46 43  1  0
 47 50  1  0
 35 48  1  1
 49 44  1  0
 50 45  1  0
 20 17  1  0
 24 23  1  0
 19 18  1  0
M  END
>  <ID>  (265) 


>  <MOLENAME>  (265) 
AMIKACIN SULFATE

>  <therap>  (265) 
antibacterial

>  <ref>  (265) 
Surgery 84:603 (1978); Eur J Clin Pharmacol 31:79 (1986); Dev Pharmacol Ther 20:167 (1993)

>  <cas#>  (265) 
39831-55-5, 37517-28-5 [amikacin]

>  <source>  (265) 
semisynthetic

>  <status>  (265) 
USP, JAN

>  <tradename>  (265) 
AMIKIN

>  <SMILES>  (265) 
NCC[C@@H](O)C(=O)N[C@@H]1C[C@H](N)[C@@H](O[C@H]2O[C@H](CN)[C@@H](O)[C@H](O)[C@H]2O)[C@H](O)[C@H]1O[C@H]1O[C@H](CO)[C@@H](O)[C@H](N)C1O

>  <standardized_failed>  (265) 
False

$$$$

     RDKit          2D

 16 15  0  0  0  0  0  0  0  0999 V2000
    5.9542   -3.5292    0.0000 C   0  0  0  0  0  0  0  0  0  0  0  0
    5.2417   -3.1167    0.0000 N   0  0  0  0  0  0  0  0  0  0  0  0
    5.2417   -4.7667    0.0000 N   0  0  0  0  0  0  0  0  0  0  0  0
    6.6750   -3.1167    0.0000 C   0  0  0  0  0  0  0  0  0  0  0  0
    5.9542   -4.3542    0.0000 C   0  0  0  0  0  0  0  0  0  0  0  0
    7.3875   -3.5250    0.0000 N   0  0  0  0  0  0  0  0  0  0  0  0
    4.5250   -3.5292    0.0000 C   0  0  0  0  0  0  0  0  0  0  0  0
    4.5250   -4.3542    0.0000 C   0  0  0  0  0  0  0  0  0  0  0  0
    8.1000   -3.1167    0.0000 C   0  0  0  0  0  0  0  0  0  0  0  0
    8.0917   -2.2917    0.0000 N   0  0  0  0  0  0  0  0  0  0  0  0
    6.6750   -2.2875    0.0000 O   0  0  0  0  0  0  0  0  0  0  0  0
    6.6750   -4.7792    0.0000 N   0  0  0  0  0  0  0  0  0  0  0  0
    3.8042   -4.7792    0.0000 N   0  0  0  0  0  0  0  0  0  0  0  0
    8.8125   -3.5292    0.0000 N   0  0  0  0  0  0  0  0  0  0  0  0
    3.8042   -3.1167    0.0000 Cl  0  0  0  0  0  0  0  0  0  0  0  0
    7.7292   -4.5917    0.0000 Cl  0  0  0  0  0  0  0  0  0  0  0  0
  2  1  2  0
  3  5  2  0
  4  1  1  0
  5  1  1  0
  6  4  1  0
  7  2  1  0
  8  3  1  0
  9  6  1  0
 10  9  2  0
 11  4  2  0
 12  5  1  0
 13  8  1  0
 14  9  1  0
 15  7  1  0
  8  7  2  0
M  END
>  <ID>  (266) 


>  <MOLENAME>  (266) 
AMILORIDE HYDROCHLORIDE

>  <therap>  (266) 
Na+ channel inhibitor, diuretic

>  <ref>  (266) 
Biochim Biophys Acta 944: 383 (1988)

>  <cas#>  (266) 
17440-83-4, 2016-88-8 [anhydrous], 2609-46-3 [amiloride]

>  <source>  (266) 
synthetic

>  <status>  (266) 
USP, INN, BAN

>  <tradename>  (266) 
MIDAMOR

>  <SMILES>  (266) 
N=C(N)NC(=O)c1nc(Cl)c(N)nc1N

>  <standardized_failed>  (266) 
False

$$$$

     RDKit          2D

  9  8  0  0  0  0  0  0  0  0999 V2000
    3.5792   -1.9917    0.0000 C   0  0  0  0  0  0  0  0  0  0  0  0
    3.5792   -1.3375    0.0000 O   0  0  0  0  0  0  0  0  0  0  0  0
    4.2292   -2.3625    0.0000 O   0  0  0  0  0  0  0  0  0  0  0  0
    0.3375   -3.0875    0.0000 N   0  0  0  0  0  0  0  0  0  0  0  0
    2.9292   -2.3667    0.0000 C   0  0  0  0  0  0  0  0  0  0  0  0
    0.3375   -2.3667    0.0000 C   0  0  0  0  0  0  0  0  0  0  0  0
    2.2792   -1.9917    0.0000 C   0  0  0  0  0  0  0  0  0  0  0  0
    0.9792   -1.9917    0.0000 C   0  0  0  0  0  0  0  0  0  0  0  0
    1.6292   -2.3667    0.0000 C   0  0  0  0  0  0  0  0  0  0  0  0
  2  1  2  0
  3  1  1  0
  4  6  1  0
  5  1  1  0
  6  8  1  0
  7  5  1  0
  8  9  1  0
  9  7  1  0
M  END
>  <ID>  (267) 


>  <MOLENAME>  (267) 
AMINOCAPROIC ACID

>  <therap>  (267) 
hemostatic

>  <ref>  (267) 
Br Med J 4:17 (1975); J Surg Oncology 33:109 (1986); J Thorac Cardiovasc Surg 95:538 (1988); Circulation 99:81 (1999)

>  <cas#>  (267) 
60-32-2

>  <source>  (267) 
synthetic

>  <status>  (267) 
USP, INN, BAN

>  <tradename>  (267) 
AMICAR

>  <SMILES>  (267) 
NCCCCCC(=O)O

>  <standardized_failed>  (267) 
False

$$$$

     RDKit          2D

 17 18  0  0  0  0  0  0  0  0999 V2000
    2.1042   -1.8417    0.0000 C   0  0  0  0  0  0  0  0  0  0  0  0
    1.4542   -2.2167    0.0000 N   0  0  0  0  0  0  0  0  0  0  0  0
    2.7542   -2.2167    0.0000 C   0  0  0  0  0  0  0  0  0  0  0  0
    1.4542   -2.9667    0.0000 C   0  0  0  0  0  0  0  0  0  0  0  0
    2.7542   -2.9667    0.0000 C   0  0  0  0  0  0  0  0  0  0  0  0
    3.5042   -2.2167    0.0000 C   0  0  0  0  0  0  0  0  0  0  0  0
    2.1042   -1.0917    0.0000 O   0  0  0  0  0  0  0  0  0  0  0  0
    0.8042   -3.3417    0.0000 O   0  0  0  0  0  0  0  0  0  0  0  0
    2.1042   -3.3417    0.0000 C   0  0  0  0  0  0  0  0  0  0  0  0
    3.5042   -2.9667    0.0000 C   0  0  0  0  0  0  0  0  0  0  0  0
    4.1500   -1.8417    0.0000 C   0  0  0  0  0  0  0  0  0  0  0  0
    4.8000   -2.9667    0.0000 C   0  0  0  0  0  0  0  0  0  0  0  0
    5.4542   -3.3417    0.0000 N   0  0  0  0  0  0  0  0  0  0  0  0
    4.1500   -3.3417    0.0000 C   0  0  0  0  0  0  0  0  0  0  0  0
    4.8000   -2.2167    0.0000 C   0  0  0  0  0  0  0  0  0  0  0  0
    2.8917   -1.5250    0.0000 C   0  0  0  0  0  0  0  0  0  0  0  0
    3.5500   -1.1500    0.0000 C   0  0  0  0  0  0  0  0  0  0  0  0
  2  1  1  0
  3  1  1  0
  4  2  1  0
  5  3  1  0
  6  3  1  0
  7  1  2  0
  8  4  2  0
  9  5  1  0
 10  6  2  0
 11  6  1  0
 12 15  1  0
 13 12  1  0
 14 10  1  0
 15 11  2  0
 16  3  1  0
 17 16  1  0
  9  4  1  0
 12 14  2  0
M  END
>  <ID>  (268) 


>  <MOLENAME>  (268) 
AMINOGLUTETHIMIDE

>  <therap>  (268) 
aromatase inhibitor, antineoplastic, testosterone suppressant

>  <ref>  (268) 
Postgrad Med J 46:409 (1970); Singapore Med J 33:523 (1992); Chem Res Toxicol 20:10 (2007)

>  <cas#>  (268) 
125-84-8

>  <source>  (268) 
synthetic

>  <status>  (268) 
USP, INN, BAN

>  <tradename>  (268) 
CYTADREN

>  <SMILES>  (268) 
CCC1(c2ccc(N)cc2)CCC(=O)NC1=O

>  <standardized_failed>  (268) 
False

$$$$

     RDKit          2D

 12 11  0  0  0  0  0  0  0  0999 V2000
    3.2042   -0.3792    0.0000 C   0  0  0  0  0  0  0  0  0  0  0  0
    3.8542   -0.0042    0.0000 C   0  0  0  0  0  0  0  0  0  0  0  0
    3.2042   -1.1292    0.0000 C   0  0  0  0  0  0  0  0  0  0  0  0
    2.5542    0.0083    0.0000 C   0  0  0  0  0  0  0  0  0  0  0  0
    2.5542   -1.5042    0.0000 C   0  0  0  0  0  0  0  0  0  0  0  0
    4.5042   -0.3792    0.0000 O   0  0  0  0  0  0  0  0  0  0  0  0
    3.8542    0.7458    0.0000 O   0  0  0  0  0  0  0  0  0  0  0  0
    1.9042   -1.1292    0.0000 C   0  0  0  0  0  0  0  0  0  0  0  0
    3.8542   -1.5042    0.0000 O   0  0  0  0  0  0  0  0  0  0  0  0
    1.9042   -0.3792    0.0000 C   0  0  0  0  0  0  0  0  0  0  0  0
    1.2542   -1.5042    0.0000 N   0  0  0  0  0  0  0  0  0  0  0  0
    5.9625    0.0958    0.0000 Na  0  0  0  0  0 15  0  0  0  0  0  0
  2  1  1  0
  3  1  2  0
  4  1  1  0
  5  3  1  0
  6  2  1  0
  7  2  2  0
  8 10  1  0
  9  3  1  0
 10  4  2  0
 11  8  1  0
  5  8  2  0
M  CHG  2   6  -1  12   1
M  END
>  <ID>  (269) 


>  <MOLENAME>  (269) 
AMINOSALICYLATE SODIUM

>  <therap>  (269) 
antibacterial, tuberculostatic

>  <ref>  (269) 
J Pharm Pharmacol 2:764 (1950); Anal Profiles Drug Subs 10:1 (1981)

>  <cas#>  (269) 
6018-19-5

>  <source>  (269) 
synthetic

>  <status>  (269) 
USP

>  <tradename>  (269) 
PAMISYL SODIUM

>  <SMILES>  (269) 
Nc1cc(O)c(C(=O)O)cc1

>  <standardized_failed>  (269) 
False

$$$$

     RDKit          2D

 22 23  0  0  0  0  0  0  0  0999 V2000
    6.2292   -2.8917    0.0000 C   0  0  0  0  0  0  0  0  0  0  0  0
    6.8792   -2.5417    0.0000 C   0  0  0  0  0  0  0  0  0  0  0  0
    5.5292   -2.6042    0.0000 C   0  0  0  0  0  0  0  0  0  0  0  0
    6.2792   -3.6417    0.0000 C   0  0  0  0  0  0  0  0  0  0  0  0
    7.0167   -1.8042    0.0000 C   0  0  0  0  0  0  0  0  0  0  0  0
    5.3292   -1.8792    0.0000 C   0  0  0  0  0  0  0  0  0  0  0  0
    6.5167   -1.2417    0.0000 C   0  0  0  0  0  0  0  0  0  0  0  0
    5.7792   -1.2792    0.0000 C   0  0  0  0  0  0  0  0  0  0  0  0
    5.0667   -5.2167    0.0000 N   0  0  0  0  0  0  0  0  0  0  0  0
    5.6542   -4.0542    0.0000 C   0  0  0  0  0  0  0  0  0  0  0  0
    7.3542   -4.8667    0.0000 Cl  0  0  0  0  0  0  0  0  0  0  0  0
    7.4542   -3.0167    0.0000 C   0  0  0  0  0  0  0  0  0  0  0  0
    5.0167   -3.1417    0.0000 C   0  0  0  0  0  0  0  0  0  0  0  0
    5.6917   -4.8042    0.0000 C   0  0  0  0  0  0  0  0  0  0  0  0
    7.7167   -1.5417    0.0000 C   0  0  0  0  0  0  0  0  0  0  0  0
    4.6042   -1.7042    0.0000 C   0  0  0  0  0  0  0  0  0  0  0  0
    5.1167   -5.9667    0.0000 C   0  0  0  0  0  0  0  0  0  0  0  0
    4.3917   -4.8792    0.0000 C   0  0  0  0  0  0  0  0  0  0  0  0
    8.1542   -2.7542    0.0000 C   0  0  0  0  0  0  0  0  0  0  0  0
    4.2917   -2.9667    0.0000 C   0  0  0  0  0  0  0  0  0  0  0  0
    4.0792   -2.2417    0.0000 C   0  0  0  0  0  0  0  0  0  0  0  0
    8.2917   -2.0292    0.0000 C   0  0  0  0  0  0  0  0  0  0  0  0
  2  1  1  0
  3  1  1  0
  4  1  2  0
  5  2  2  0
  6  3  2  0
  7  5  1  0
  8  6  1  0
  9 14  1  0
 10  4  1  0
 12  2  1  0
 13  3  1  0
 14 10  1  0
 15  5  1  0
 16  6  1  0
 17  9  1  0
 18  9  1  0
 19 12  2  0
 20 13  2  0
 21 20  1  0
 22 19  1  0
  8  7  1  0
 21 16  2  0
 15 22  2  0
M  END
>  <ID>  (270) 


>  <MOLENAME>  (270) 
AMITRIPTYLINE HYDROCHLORIDE

>  <therap>  (270) 
antidepressant

>  <ref>  (270) 
Anal Profiles Drug Subs 3:127 (1974); Arzneim Forsch 31:1278 (1981)

>  <cas#>  (270) 
549-18-8

>  <source>  (270) 
synthetic

>  <status>  (270) 
USP, INN, BAN, JAN

>  <tradename>  (270) 
ELAVIL

>  <SMILES>  (270) 
CN(C)CCC=C1c2c(cccc2)CCc2c1cccc2

>  <standardized_failed>  (270) 
False

$$$$

     RDKit          2D

 27 27  0  0  0  0  0  0  0  0999 V2000
    6.8417   -1.9292    0.0000 C   0  0  0  0  0  0  0  0  0  0  0  0
    7.4917   -2.3042    0.0000 C   0  0  0  0  0  0  0  0  0  0  0  0
    6.8417   -1.1792    0.0000 C   0  0  0  0  0  0  0  0  0  0  0  0
    5.5417   -4.1792    0.0000 C   0  0  0  0  0  0  0  0  0  0  0  0
    7.4917   -3.0542    0.0000 N   0  0  0  0  0  0  0  0  0  0  0  0
    6.2042   -4.5542    0.0000 C   0  0  0  0  0  0  0  0  0  0  0  0
    6.8417   -4.1792    0.0000 C   0  0  0  0  0  0  0  0  0  0  0  0
    6.2042   -0.8042    0.0000 C   0  0  0  0  0  0  0  0  0  0  0  0
    6.2042   -2.3042    0.0000 C   0  0  0  0  0  0  0  0  0  0  0  0
    7.4917   -0.8042    0.0000 N   0  0  0  0  0  0  0  0  0  0  0  0
    6.8417   -3.4292    0.0000 C   0  0  0  0  0  0  0  0  0  0  0  0
    4.8917   -4.5542    0.0000 C   0  0  0  0  0  0  0  0  0  0  0  0
    5.5417   -3.4292    0.0000 C   0  0  0  0  0  0  0  0  0  0  0  0
    5.5542   -1.1792    0.0000 C   0  0  0  0  0  0  0  0  0  0  0  0
    4.8792   -5.3042    0.0000 N   0  0  0  0  0  0  0  0  0  0  0  0
    8.1417   -1.9292    0.0000 C   0  0  0  0  0  0  0  0  0  0  0  0
    5.5542   -1.9292    0.0000 C   0  0  0  0  0  0  0  0  0  0  0  0
    8.1417   -1.1792    0.0000 C   0  0  0  0  0  0  0  0  0  0  0  0
    6.1917   -3.0542    0.0000 C   0  0  0  0  0  0  0  0  0  0  0  0
    6.2042   -5.3042    0.0000 O   0  0  0  0  0  0  0  0  0  0  0  0
    4.8917   -0.8000    0.0000 Cl  0  0  0  0  0  0  0  0  0  0  0  0
    8.5417   -3.1167    0.0000 Cl  0  0  0  0  0  0  0  0  0  0  0  0
    3.2042   -5.0292    0.0000 Cl  0  0  0  0  0  0  0  0  0  0  0  0
    5.5292   -5.6792    0.0000 C   0  0  0  0  0  0  0  0  0  0  0  0
    4.2292   -5.6792    0.0000 C   0  0  0  0  0  0  0  0  0  0  0  0
    5.5292   -6.3917    0.0000 C   0  0  0  0  0  0  0  0  0  0  0  0
    4.2292   -6.4292    0.0000 C   0  0  0  0  0  0  0  0  0  0  0  0
  2  1  1  0
  3  1  1  0
  4 13  2  0
  5  2  1  0
  6  7  2  0
  7 11  1  0
  8  3  2  0
  9  1  2  0
 10  3  1  0
 11  5  1  0
 12  4  1  0
 13 19  1  0
 14 17  2  0
 15 12  1  0
 16  2  2  0
 17  9  1  0
 18 10  2  0
 19 11  2  0
 20  6  1  0
 21 14  1  0
 24 15  1  0
 25 15  1  0
 26 24  1  0
 27 25  1  0
 14  8  1  0
 18 16  1  0
  6  4  1  0
M  END
>  <ID>  (271) 


>  <MOLENAME>  (271) 
AMODIAQUINE DIHYDROCHLORIDE

>  <therap>  (271) 
antimalarial

>  <ref>  (271) 
Arzneim Forsch 22:1230 (1972); Anal Profiles Drug Subs 21:43 (1992)

>  <cas#>  (271) 
6398-98-7, 69-44-3 [anhydrous], 86-42-0 [amodiaquine]

>  <source>  (271) 
synthetic

>  <status>  (271) 
USP, INN, BAN

>  <tradename>  (271) 
CAMOQUIN

>  <SMILES>  (271) 
CCN(CC)Cc1ccc(Nc2ccnc3cc(Cl)ccc23)cc1O

>  <standardized_failed>  (271) 
False

$$$$

     RDKit          2D

 25 27  0  0  0  0  0  0  0  0999 V2000
    4.9667   -2.0125    0.0000 N   0  0  0  0  0  0  0  0  0  0  0  0
    4.9667   -2.7625    0.0000 C   0  0  0  0  0  0  0  0  0  0  0  0
    4.2167   -2.0125    0.0000 C   0  0  0  0  0  0  0  0  0  0  0  0
    4.2167   -2.7625    0.0000 C   0  0  0  0  0  0  0  0  0  0  0  0
    5.6167   -1.6292    0.0000 C   0  0  0  0  0  0  0  0  0  0  0  0
    6.2667   -2.7625    0.0000 S   0  0  0  0  0  0  0  0  0  0  0  0
    6.2667   -2.0125    0.0000 C   0  0  0  0  0  0  0  0  0  0  0  0
    3.0917   -2.7917    0.0000 N   0  0  0  0  0  0  0  0  0  0  0  0
    2.2792   -2.7917    0.0000 C   0  0  0  0  0  0  0  0  0  0  0  0
    5.6167   -0.8792    0.0000 C   0  0  0  0  0  0  0  0  0  0  0  0
    1.2750   -2.7917    0.0000 C   0  0  0  0  0  0  0  0  0  0  0  0
    3.6875   -1.4792    0.0000 O   0  0  0  0  0  0  0  0  0  0  0  0
    2.2792   -1.9167    0.0000 O   0  0  0  0  0  0  0  0  0  0  0  0
    0.5250   -2.7917    0.0000 C   0  0  0  0  0  0  0  0  0  0  0  0
    4.9667   -0.5042    0.0000 O   0  0  0  0  0  0  0  0  0  0  0  0
    0.1500   -3.4417    0.0000 C   0  0  0  0  0  0  0  0  0  0  0  0
    0.1500   -2.1375    0.0000 C   0  0  0  0  0  0  0  0  0  0  0  0
    1.2792   -3.6625    0.0000 N   0  0  0  0  0  0  0  0  0  0  0  0
    6.2667   -0.5042    0.0000 O   0  0  0  0  0  0  0  0  0  0  0  0
    7.0250   -2.2542    0.0000 C   0  0  0  0  0  0  0  0  0  0  0  0
    6.9917   -1.3250    0.0000 C   0  0  0  0  0  0  0  0  0  0  0  0
   -0.9833   -2.7917    0.0000 C   0  0  0  0  0  0  0  0  0  0  0  0
   -0.6083   -3.4417    0.0000 C   0  0  0  0  0  0  0  0  0  0  0  0
   -0.6083   -2.1417    0.0000 C   0  0  0  0  0  0  0  0  0  0  0  0
   -1.7333   -2.7917    0.0000 O   0  0  0  0  0  0  0  0  0  0  0  0
  2  1  1  0
  3  1  1  0
  4  3  1  0
  5  1  1  0
  2  6  1  6
  7  5  1  0
  4  8  1  6
  9  8  1  0
  5 10  1  1
 11  9  1  0
 12  3  2  0
 13  9  2  0
 14 11  1  0
 15 10  2  0
 16 14  2  0
 17 14  1  0
 11 18  1  1
 19 10  1  0
 20  7  1  0
 21  7  1  0
 22 24  1  0
 23 16  1  0
 24 17  2  0
 25 22  1  0
  7  6  1  0
  4  2  1  0
 23 22  2  0
M  END
>  <ID>  (272) 


>  <MOLENAME>  (272) 
AMOXICILLIN

>  <therap>  (272) 
antibacterial

>  <ref>  (272) 
Antimicrob Agents Chemother 1970:407; Drugs 18:169 (1979)

>  <cas#>  (272) 
61336-70-7, 26787-78-0 [anhydrous]

>  <source>  (272) 
semisynthetic

>  <status>  (272) 
USP, INN, BAN, JAN

>  <tradename>  (272) 
AMOXIL

>  <SMILES>  (272) 
CC1(C)S[C@@H]2[C@H](NC(=O)[C@H](N)c3ccc(O)cc3)C(=O)N2[C@H]1C(=O)O

>  <standardized_failed>  (272) 
False

$$$$

     RDKit          2D

 65 67  0  0  0  0  0  0  0  0999 V2000
   11.2000   -0.8292    0.0000 C   0  0  0  0  0  0  0  0  0  0  0  0
   12.9750   -4.1542    0.0000 C   0  0  0  0  0  0  0  0  0  0  0  0
   11.5375   -5.3042    0.0000 C   0  0  0  0  0  0  0  0  0  0  0  0
   13.1000   -4.7792    0.0000 C   0  0  0  0  0  0  0  0  0  0  0  0
   12.7792   -1.2667    0.0000 C   0  0  0  0  0  0  0  0  0  0  0  0
   12.2125   -1.8292    0.0000 C   0  0  0  0  0  0  0  0  0  0  0  0
   14.2792   -4.1417    0.0000 O   0  0  0  0  0  0  0  0  0  0  0  0
   11.4125   -1.6167    0.0000 O   0  0  0  0  0  0  0  0  0  0  0  0
   14.3500   -5.1542    0.0000 C   0  0  0  0  0  0  0  0  0  0  0  0
   12.5667   -0.4667    0.0000 C   0  0  0  0  0  0  0  0  0  0  0  0
   11.7792   -0.2542    0.0000 C   0  0  0  0  0  0  0  0  0  0  0  0
    3.2375   -1.3667    0.0000 C   0  0  0  0  0  0  0  0  0  0  0  0
    2.5542   -0.9042    0.0000 O   0  0  0  0  0  0  0  0  0  0  0  0
    1.7542   -2.0917    0.0000 C   0  0  0  0  0  0  0  0  0  0  0  0
   15.3417   -3.8042    0.0000 C   0  0  0  0  0  0  0  0  0  0  0  0
   13.5750   -1.5042    0.0000 C   0  0  0  0  0  0  0  0  0  0  0  0
    1.8125   -1.2667    0.0000 C   0  0  0  0  0  0  0  0  0  0  0  0
    1.0125   -2.4542    0.0000 C   0  0  0  0  0  0  0  0  0  0  0  0
   10.3792   -0.8292    0.0000 C   0  0  0  0  0  0  0  0  0  0  0  0
   11.6000   -4.1542    0.0000 O   0  0  0  0  0  0  0  0  0  0  0  0
    3.9792   -1.0125    0.0000 C   0  0  0  0  0  0  0  0  0  0  0  0
   12.2125   -2.6417    0.0000 C   0  0  0  0  0  0  0  0  0  0  0  0
    9.3417   -1.3292    0.0000 C   0  0  0  0  0  0  0  0  0  0  0  0
    8.6875   -1.8417    0.0000 C   0  0  0  0  0  0  0  0  0  0  0  0
   11.5667   -3.1542    0.0000 C   0  0  0  0  0  0  0  0  0  0  0  0
    9.9542   -1.8875    0.0000 C   0  0  0  0  0  0  0  0  0  0  0  0
    4.6667   -1.4792    0.0000 C   0  0  0  0  0  0  0  0  0  0  0  0
    3.1667   -2.1917    0.0000 O   0  0  0  0  0  0  0  0  0  0  0  0
    0.9500   -3.2792    0.0000 C   0  0  0  0  0  0  0  0  0  0  0  0
   14.1750   -0.9417    0.0000 O   0  0  0  0  0  0  0  0  0  0  0  0
    8.1792   -1.1875    0.0000 C   0  0  0  0  0  0  0  0  0  0  0  0
   12.6917   -5.7000    0.0000 N   0  0  0  0  0  0  0  0  0  0  0  0
    5.4125   -1.1167    0.0000 C   0  0  0  0  0  0  0  0  0  0  0  0
    3.0625   -3.8417    0.0000 C   0  0  0  0  0  0  0  0  0  0  0  0
    7.3375   -3.8042    0.0000 C   0  0  0  0  0  0  0  0  0  0  0  0
    9.3917   -3.0667    0.0000 C   0  0  0  0  0  0  0  0  0  0  0  0
    6.5667   -3.5042    0.0000 C   0  0  0  0  0  0  0  0  0  0  0  0
    8.7500   -3.5875    0.0000 C   0  0  0  0  0  0  0  0  0  0  0  0
    7.9792   -3.2875    0.0000 C   0  0  0  0  0  0  0  0  0  0  0  0
    5.9250   -4.0167    0.0000 C   0  0  0  0  0  0  0  0  0  0  0  0
    5.2375   -3.5667    0.0000 C   0  0  0  0  0  0  0  0  0  0  0  0
    4.4917   -3.9375    0.0000 C   0  0  0  0  0  0  0  0  0  0  0  0
    3.8042   -3.4792    0.0000 C   0  0  0  0  0  0  0  0  0  0  0  0
    2.3750   -3.3792    0.0000 C   0  0  0  0  0  0  0  0  0  0  0  0
   10.1625   -3.3667    0.0000 C   0  0  0  0  0  0  0  0  0  0  0  0
   10.8042   -2.8542    0.0000 C   0  0  0  0  0  0  0  0  0  0  0  0
    1.6292   -3.7417    0.0000 C   0  0  0  0  0  0  0  0  0  0  0  0
   11.2000   -0.0042    0.0000 O   0  0  0  0  0  0  0  0  0  0  0  0
   11.3167   -6.1042    0.0000 O   0  0  0  0  0  0  0  0  0  0  0  0
    7.5250   -1.6917    0.0000 C   0  0  0  0  0  0  0  0  0  0  0  0
   15.1750   -5.1542    0.0000 O   0  0  0  0  0  0  0  0  0  0  0  0
   13.1417    0.1250    0.0000 O   0  0  0  0  0  0  0  0  0  0  0  0
   13.7667   -2.3042    0.0000 O   0  0  0  0  0  0  0  0  0  0  0  0
    0.3167   -1.9875    0.0000 O   0  0  0  0  0  0  0  0  0  0  0  0
    6.0917   -1.5875    0.0000 C   0  0  0  0  0  0  0  0  0  0  0  0
    8.5792   -2.6667    0.0000 O   0  0  0  0  0  0  0  0  0  0  0  0
    6.8417   -1.2292    0.0000 C   0  0  0  0  0  0  0  0  0  0  0  0
   10.0417   -2.7042    0.0000 O   0  0  0  0  0  0  0  0  0  0  0  0
    8.2792   -0.3625    0.0000 O   0  0  0  0  0  0  0  0  0  0  0  0
    4.6000   -2.3042    0.0000 O   0  0  0  0  0  0  0  0  0  0  0  0
    2.4417   -2.5625    0.0000 C   0  0  0  0  0  0  0  0  0  0  0  0
    6.0292   -2.4125    0.0000 O   0  0  0  0  0  0  0  0  0  0  0  0
   16.0542   -4.2167    0.0000 C   0  0  0  0  0  0  0  0  0  0  0  0
    1.1167   -0.8000    0.0000 C   0  0  0  0  0  0  0  0  0  0  0  0
    0.1917   -3.6375    0.0000 C   0  0  0  0  0  0  0  0  0  0  0  0
  2 20  1  0
  3  2  1  0
  4  3  1  0
  5 10  1  0
  6  8  1  0
  7  2  1  0
  1  8  1  0
  9 15  1  0
 10 11  1  0
 11  1  1  0
 12 21  1  0
 13 12  1  0
 14 17  1  0
 15  7  1  0
 16  5  1  0
 17 13  1  0
 18 14  1  0
 19  1  1  0
 25 20  1  1
 21 27  1  0
 22  6  1  0
 23 26  1  0
 24 23  1  0
 25 22  1  0
 26 19  1  0
 27 33  1  0
 28 12  2  0
 29 18  1  0
 30 16  2  0
 31 24  1  0
  4 32  1  6
 33 55  1  0
 34 43  2  0
 35 39  2  0
 36 45  1  0
 37 35  1  0
 38 36  2  0
 39 38  1  0
 40 37  2  0
 41 40  1  0
 42 41  2  0
 43 42  1  0
 44 34  1  0
 45 46  2  0
 46 25  1  0
 47 29  1  0
  1 48  1  6
 49  3  1  0
 50 31  1  0
 51  9  1  0
 10 52  1  6
 53 16  1  0
 18 54  1  1
 55 57  1  0
 56 24  1  0
 57 50  1  0
 58 26  1  0
 59 31  1  0
 60 27  1  0
 14 61  1  6
 62 55  1  0
 63 15  1  0
 17 64  1  6
 29 65  1  6
  5  6  1  0
  4  9  1  0
 47 44  2  0
M  END
>  <ID>  (273) 


>  <MOLENAME>  (273) 
AMPHOTERICIN B

>  <therap>  (273) 
antifungal

>  <ref>  (273) 
New Engl J Med 296: 784 (1977)

>  <cas#>  (273) 
1397-89-3

>  <source>  (273) 
Streptomycetes nodosus

>  <status>  (273) 
USP, INN, BAN, JAN

>  <tradename>  (273) 
ABELCET

>  <SMILES>  (273) 
CC1OC(O[C@H]2/C=C/C=C/C=C/C=C/C=C/C=C/C=C/[C@H](C)[C@@H](O)[C@@H](C)[C@H](C)OC(=O)CC(O)CC(O)CCC(O)C(O)CC(O)C[C@@]3(O)C[C@H](O)C(C(=O)O)C(C2)O3)C(O)[C@H](N)C1O

>  <standardized_failed>  (273) 
False

$$$$

     RDKit          2D

 25 26  0  0  0  0  0  0  0  0999 V2000
    8.1375   -3.4667    0.0000 N   0  0  0  0  0  0  0  0  0  0  0  0
    7.9250   -4.2667    0.0000 C   0  0  0  0  0  0  0  0  0  0  0  0
    7.3417   -3.2542    0.0000 C   0  0  0  0  0  0  0  0  0  0  0  0
    7.1292   -4.0542    0.0000 C   0  0  0  0  0  0  0  0  0  0  0  0
    8.9292   -3.2500    0.0000 C   0  0  0  0  0  0  0  0  0  0  0  0
    8.9167   -4.7167    0.0000 S   0  0  0  0  0  0  0  0  0  0  0  0
    9.4500   -3.9917    0.0000 C   0  0  0  0  0  0  0  0  0  0  0  0
    6.3167   -4.4875    0.0000 N   0  0  0  0  0  0  0  0  0  0  0  0
    5.6042   -4.0667    0.0000 C   0  0  0  0  0  0  0  0  0  0  0  0
    9.1500   -2.4542    0.0000 C   0  0  0  0  0  0  0  0  0  0  0  0
    4.8917   -4.4792    0.0000 C   0  0  0  0  0  0  0  0  0  0  0  0
    6.9250   -2.5292    0.0000 O   0  0  0  0  0  0  0  0  0  0  0  0
    5.6167   -3.2667    0.0000 O   0  0  0  0  0  0  0  0  0  0  0  0
    9.9417   -2.2417    0.0000 O   0  0  0  0  0  0  0  0  0  0  0  0
    8.5667   -1.8667    0.0000 O   0  0  0  0  0  0  0  0  0  0  0  0
    4.8875   -5.3042    0.0000 C   0  0  0  0  0  0  0  0  0  0  0  0
    4.1750   -4.0625    0.0000 N   0  0  0  0  0  0  0  0  0  0  0  0
   10.1042   -4.4042    0.0000 C   0  0  0  0  0  0  0  0  0  0  0  0
   10.0750   -3.5542    0.0000 C   0  0  0  0  0  0  0  0  0  0  0  0
   10.4417   -1.5292    0.0000 Na  0  0  0  0  0 15  0  0  0  0  0  0
    5.6000   -5.7167    0.0000 C   0  0  0  0  0  0  0  0  0  0  0  0
    4.1667   -5.7125    0.0000 C   0  0  0  0  0  0  0  0  0  0  0  0
    5.5917   -6.5500    0.0000 C   0  0  0  0  0  0  0  0  0  0  0  0
    4.1667   -6.5417    0.0000 C   0  0  0  0  0  0  0  0  0  0  0  0
    4.8792   -6.9542    0.0000 C   0  0  0  0  0  0  0  0  0  0  0  0
  2  1  1  0
  3  1  1  0
  4  3  1  0
  5  1  1  0
  2  6  1  6
  7  5  1  0
  4  8  1  6
  9  8  1  0
  5 10  1  1
 11  9  1  0
 12  3  2  0
 13  9  2  0
 14 10  1  0
 15 10  2  0
 16 11  1  0
 11 17  1  1
 18  7  1  0
 19  7  1  0
 21 16  2  0
 22 16  1  0
 23 21  1  0
 24 22  2  0
 25 23  2  0
  7  6  1  0
  4  2  1  0
 24 25  1  0
M  CHG  2  14  -1  20   1
M  END
>  <ID>  (274) 


>  <MOLENAME>  (274) 
AMPICILLIN SODIUM

>  <therap>  (274) 
antibacterial

>  <ref>  (274) 
Br Med J 2:193 (1961); Drugs 33:577 (1987)

>  <cas#>  (274) 
69-52-3, 69-53-4 [ampicillin]

>  <source>  (274) 
semisynthetic

>  <status>  (274) 
USP, INN, BAN, JAN

>  <tradename>  (274) 
OMNIPEN

>  <SMILES>  (274) 
CC1(C)S[C@@H]2[C@H](NC(=O)[C@H](N)c3ccccc3)C(=O)N2[C@H]1C(=O)O

>  <standardized_failed>  (274) 
False

$$$$

     RDKit          2D

 31 31  0  0  0  0  0  0  0  0999 V2000
    2.9792   -4.7292    0.0000 C   0  0  0  0  0  0  0  0  0  0  0  0
   10.0042   -6.8667    0.0000 N   0  0  0  0  0  0  0  0  0  0  0  0
    3.8042   -4.7292    0.0000 C   0  0  0  0  0  0  0  0  0  0  0  0
    2.1542   -4.7292    0.0000 C   0  0  0  0  0  0  0  0  0  0  0  0
    8.3875   -4.4667    0.0000 Cl  0  0  0  0  0  0  0  0  0  0  0  0
    1.7417   -4.0167    0.0000 C   0  0  0  0  0  0  0  0  0  0  0  0
    4.2167   -5.4417    0.0000 C   0  0  0  0  0  0  0  0  0  0  0  0
    4.2167   -4.0167    0.0000 C   0  0  0  0  0  0  0  0  0  0  0  0
   10.8292   -6.8667    0.0000 C   0  0  0  0  0  0  0  0  0  0  0  0
    5.4542   -4.7292    0.0000 C   0  0  0  0  0  0  0  0  0  0  0  0
    5.0417   -4.0167    0.0000 C   0  0  0  0  0  0  0  0  0  0  0  0
    5.0417   -5.4417    0.0000 C   0  0  0  0  0  0  0  0  0  0  0  0
   11.2417   -6.1500    0.0000 C   0  0  0  0  0  0  0  0  0  0  0  0
    6.2792   -4.7292    0.0000 O   0  0  0  0  0  0  0  0  0  0  0  0
    2.9792   -5.5542    0.0000 C   0  0  0  0  0  0  0  0  0  0  0  0
    2.9792   -3.9042    0.0000 C   0  0  0  0  0  0  0  0  0  0  0  0
    9.1792   -6.8667    0.0000 C   0  0  0  0  0  0  0  0  0  0  0  0
   10.0042   -7.6917    0.0000 C   0  0  0  0  0  0  0  0  0  0  0  0
   10.0042   -6.0417    0.0000 C   0  0  0  0  0  0  0  0  0  0  0  0
    7.9375   -6.1542    0.0000 O   0  0  0  0  0  0  0  0  0  0  0  0
    2.4625   -3.6000    0.0000 C   0  0  0  0  0  0  0  0  0  0  0  0
    1.3250   -3.2917    0.0000 C   0  0  0  0  0  0  0  0  0  0  0  0
    1.0167   -4.4292    0.0000 C   0  0  0  0  0  0  0  0  0  0  0  0
    8.7667   -6.1542    0.0000 C   0  0  0  0  0  0  0  0  0  0  0  0
    6.6917   -5.4417    0.0000 C   0  0  0  0  0  0  0  0  0  0  0  0
    7.5250   -5.4417    0.0000 C   0  0  0  0  0  0  0  0  0  0  0  0
   12.0667   -6.1542    0.0000 C   0  0  0  0  0  0  0  0  0  0  0  0
   10.8292   -5.4417    0.0000 C   0  0  0  0  0  0  0  0  0  0  0  0
   11.2375   -4.7250    0.0000 C   0  0  0  0  0  0  0  0  0  0  0  0
   12.4792   -5.4375    0.0000 C   0  0  0  0  0  0  0  0  0  0  0  0
   12.0667   -4.7250    0.0000 C   0  0  0  0  0  0  0  0  0  0  0  0
  2 17  1  0
  3  1  1  0
  4  1  1  0
  6  4  1  0
  7  3  2  0
  8  3  1  0
  9  2  1  0
 10 12  2  0
 11  8  2  0
 12  7  1  0
 13  9  1  0
 14 10  1  0
 15  1  1  0
 16  1  1  0
 17 24  1  0
 18  2  1  0
 19  2  1  0
 20 26  1  0
 21  6  1  0
 22  6  1  0
 23  6  1  0
 24 20  1  0
 25 14  1  0
 26 25  1  0
 27 13  2  0
 28 13  1  0
 29 28  2  0
 30 27  1  0
 31 30  2  0
 11 10  1  0
 29 31  1  0
M  CHG  2   2   1   5  -1
M  END
>  <ID>  (275) 


>  <MOLENAME>  (275) 
BENZETHONIUM CHLORIDE

>  <therap>  (275) 
antiinfective (topical)

>  <ref>  (275) 
Lancet 243:49 (1944); J Am Pharm Assoc 40:267 (1951); J Am Coll Toxicol 4:65 (1985)

>  <cas#>  (275) 
121-54-0

>  <source>  (275) 
synthetic

>  <status>  (275) 
USP, INN, BAN, JAN

>  <tradename>  (275) 
PHEMERIDE

>  <SMILES>  (275) 
CC(C)(C)CC(C)(C)c1ccc(OCCOCC[N+](C)(C)Cc2ccccc2)cc1

>  <standardized_failed>  (275) 
False

$$$$

     RDKit          2D

 17 19  0  0  0  0  0  0  0  0999 V2000
    1.1792    0.2208    0.0000 C   0  0  0  0  0  0  0  0  0  0  0  0
    0.5292   -0.1542    0.0000 C   0  0  0  0  0  0  0  0  0  0  0  0
    1.8292   -0.1542    0.0000 C   0  0  0  0  0  0  0  0  0  0  0  0
    0.5292   -0.9000    0.0000 C   0  0  0  0  0  0  0  0  0  0  0  0
    1.8292   -0.9000    0.0000 C   0  0  0  0  0  0  0  0  0  0  0  0
    1.1792   -1.2750    0.0000 C   0  0  0  0  0  0  0  0  0  0  0  0
    1.1792    0.9708    0.0000 O   0  0  0  0  0  0  0  0  0  0  0  0
    2.4792    0.2208    0.0000 C   0  0  0  0  0  0  0  0  0  0  0  0
   -0.1125    0.2208    0.0000 C   0  0  0  0  0  0  0  0  0  0  0  0
   -0.1125   -1.2750    0.0000 C   0  0  0  0  0  0  0  0  0  0  0  0
    2.4792   -1.2750    0.0000 C   0  0  0  0  0  0  0  0  0  0  0  0
   -0.1083    0.9708    0.0000 O   0  0  0  0  0  0  0  0  0  0  0  0
    2.4792    0.9708    0.0000 O   0  0  0  0  0  0  0  0  0  0  0  0
   -0.7625   -0.9000    0.0000 C   0  0  0  0  0  0  0  0  0  0  0  0
    3.1292   -0.9000    0.0000 C   0  0  0  0  0  0  0  0  0  0  0  0
   -0.7625   -0.1542    0.0000 C   0  0  0  0  0  0  0  0  0  0  0  0
    3.1292   -0.1542    0.0000 C   0  0  0  0  0  0  0  0  0  0  0  0
  2  1  1  0
  3  1  1  0
  4  2  2  0
  5  3  2  0
  6  5  1  0
  7  1  2  0
  8  3  1  0
  9  2  1  0
 10  4  1  0
 11  5  1  0
 12  9  1  0
 13  8  1  0
 14 16  1  0
 15 17  1  0
 16  9  2  0
 17  8  2  0
  6  4  1  0
 11 15  2  0
 14 10  2  0
M  END
>  <ID>  (276) 


>  <MOLENAME>  (276) 
ANTHRALIN

>  <therap>  (276) 
antipsoriatic

>  <ref>  (276) 
Skin Pharmacol 3:1 (1990); Clin Dermatol 15:723 (1997)

>  <cas#>  (276) 
480-22-8, 1143-38-0

>  <source>  (276) 
synthetic

>  <status>  (276) 
USP

>  <tradename>  (276) 
ANTRADERM

>  <SMILES>  (276) 
O=C1c2c(cccc2O)Cc2c1c(O)ccc2

>  <standardized_failed>  (276) 
False

$$$$

     RDKit          2D

 14 15  0  0  0  0  0  0  0  0999 V2000
    1.6792   -2.3667    0.0000 C   0  0  0  0  0  0  0  0  0  0  0  0
    2.3167   -1.9875    0.0000 N   0  0  0  0  0  0  0  0  0  0  0  0
    2.9750   -2.3667    0.0000 N   0  0  0  0  0  0  0  0  0  0  0  0
    1.6792   -3.1167    0.0000 C   0  0  0  0  0  0  0  0  0  0  0  0
    2.9750   -3.1167    0.0000 C   0  0  0  0  0  0  0  0  0  0  0  0
    1.0292   -1.9917    0.0000 O   0  0  0  0  0  0  0  0  0  0  0  0
    2.3167   -1.2375    0.0000 C   0  0  0  0  0  0  0  0  0  0  0  0
    3.6250   -1.9917    0.0000 C   0  0  0  0  0  0  0  0  0  0  0  0
    3.5042   -3.6417    0.0000 C   0  0  0  0  0  0  0  0  0  0  0  0
    2.9750   -0.8542    0.0000 C   0  0  0  0  0  0  0  0  0  0  0  0
    1.6750   -0.8625    0.0000 C   0  0  0  0  0  0  0  0  0  0  0  0
    1.6750   -0.1125    0.0000 C   0  0  0  0  0  0  0  0  0  0  0  0
    2.9750   -0.1042    0.0000 C   0  0  0  0  0  0  0  0  0  0  0  0
    2.3167    0.2625    0.0000 C   0  0  0  0  0  0  0  0  0  0  0  0
  2  1  1  0
  3  2  1  0
  4  1  1  0
  5  4  2  0
  6  1  2  0
  7  2  1  0
  8  3  1  0
  9  5  1  0
 10  7  2  0
 11  7  1  0
 12 11  2  0
 13 10  1  0
 14 12  1  0
  3  5  1  0
 14 13  2  0
M  END
>  <ID>  (277) 


>  <MOLENAME>  (277) 
ANTIPYRINE

>  <therap>  (277) 
analgesic

>  <ref>  (277) 
J Pharmacol Exper Ther 89:205 (1947); Int J Oral Surg 11:304 (1982); Human Exper Toxicol 13:658 (1994)

>  <cas#>  (277) 
60-80-0

>  <source>  (277) 
synthetic

>  <status>  (277) 
USP, INN, BAN, JAN

>  <tradename>  (277) 
PARODYNE

>  <SMILES>  (277) 
Cc1cc(=O)n(-c2ccccc2)n1C

>  <standardized_failed>  (277) 
False

$$$$

     RDKit          2D

 25 26  0  0  0  0  0  0  0  0999 V2000
    6.1042   -0.8417    0.0000 P   0  0  0  0  0  0  0  0  0  0  0  0
    5.8500   -3.5542    0.0000 N   0  0  0  0  0  0  0  0  0  0  0  0
    4.7167   -2.9167    0.0000 C   0  0  0  0  0  0  0  0  0  0  0  0
    3.9792   -2.7542    0.0000 N   0  0  0  0  0  0  0  0  0  0  0  0
    5.0917   -3.5667    0.0000 C   0  0  0  0  0  0  0  0  0  0  0  0
    5.0917   -2.2667    0.0000 N   0  0  0  0  0  0  0  0  0  0  0  0
    6.1042   -1.6667    0.0000 O   0  0  0  0  0  0  0  0  0  0  0  0
    6.2167   -2.9042    0.0000 C   0  0  0  0  0  0  0  0  0  0  0  0
    6.2292   -4.2042    0.0000 C   0  0  0  0  0  0  0  0  0  0  0  0
    6.8167   -0.4292    0.0000 O   0  0  0  0  0  0  0  0  0  0  0  0
    5.3917   -0.4292    0.0000 O   0  0  0  0  0  0  0  0  0  0  0  0
    6.1042   -0.0167    0.0000 O   0  0  0  0  0  0  0  0  0  0  0  0
    6.9750   -2.8917    0.0000 C   0  0  0  0  0  0  0  0  0  0  0  0
    3.9042   -2.0167    0.0000 C   0  0  0  0  0  0  0  0  0  0  0  0
    4.5875   -1.7042    0.0000 C   0  0  0  0  0  0  0  0  0  0  0  0
    6.9792   -4.2042    0.0000 C   0  0  0  0  0  0  0  0  0  0  0  0
    5.8542   -4.8542    0.0000 C   0  0  0  0  0  0  0  0  0  0  0  0
    7.3500   -2.2417    0.0000 C   0  0  0  0  0  0  0  0  0  0  0  0
    7.3500   -3.5417    0.0000 C   0  0  0  0  0  0  0  0  0  0  0  0
    6.2292   -5.5042    0.0000 C   0  0  0  0  0  0  0  0  0  0  0  0
    7.3542   -4.8542    0.0000 C   0  0  0  0  0  0  0  0  0  0  0  0
    8.1000   -3.5417    0.0000 C   0  0  0  0  0  0  0  0  0  0  0  0
    8.1000   -2.2417    0.0000 C   0  0  0  0  0  0  0  0  0  0  0  0
    8.4750   -2.8917    0.0000 C   0  0  0  0  0  0  0  0  0  0  0  0
    6.9792   -5.5042    0.0000 C   0  0  0  0  0  0  0  0  0  0  0  0
  3  5  1  0
  4  3  2  0
  5  2  1  0
  6  3  1  0
  7  1  2  0
  8  2  1  0
  9  2  1  0
 10  1  1  0
 11  1  1  0
 12  1  1  0
 13  8  1  0
 14  4  1  0
 15  6  1  0
 16  9  2  0
 17  9  1  0
 18 13  2  0
 19 13  1  0
 20 17  2  0
 21 16  1  0
 22 19  2  0
 23 18  1  0
 24 22  1  0
 25 20  1  0
 21 25  2  0
 14 15  1  0
 23 24  2  0
M  END
>  <ID>  (278) 


>  <MOLENAME>  (278) 
ANTAZOLINE PHOSPHATE

>  <therap>  (278) 
antihistaminic

>  <ref>  (278) 
Postgrad Med J 48:304 (1972); Arch Ophthalmol 108:520 (1990)

>  <cas#>  (278) 
154-68-7, 91-75-8 [antazoline]

>  <source>  (278) 
synthetic

>  <status>  (278) 
USP

>  <tradename>  (278) 
ANTISTINE PHOSPHATE

>  <SMILES>  (278) 
c1ccc(CN(CC2=NCCN2)c2ccccc2)cc1

>  <standardized_failed>  (278) 
False

$$$$

     RDKit          2D

 21 23  0  0  0  0  0  0  0  0999 V2000
    6.7292   -3.2292    0.0000 C   0  0  0  0  0  0  0  0  0  0  0  0
    5.3792   -3.9042    0.0000 C   0  0  0  0  0  0  0  0  0  0  0  0
    5.3792   -3.1542    0.0000 C   0  0  0  0  0  0  0  0  0  0  0  0
    6.0417   -2.7792    0.0000 C   0  0  0  0  0  0  0  0  0  0  0  0
    6.0292   -4.2917    0.0000 C   0  0  0  0  0  0  0  0  0  0  0  0
    6.7292   -3.9167    0.0000 C   0  0  0  0  0  0  0  0  0  0  0  0
    7.3417   -2.7792    0.0000 N   0  0  0  0  0  0  0  0  0  0  0  0
    4.7292   -4.2917    0.0000 C   0  0  0  0  0  0  0  0  0  0  0  0
    6.0417   -2.0167    0.0000 C   0  0  0  0  0  0  0  0  0  0  0  0
    4.7292   -5.0417    0.0000 C   0  0  0  0  0  0  0  0  0  0  0  0
    6.0292   -5.0417    0.0000 C   0  0  0  0  0  0  0  0  0  0  0  0
    7.3542   -2.0167    0.0000 C   0  0  0  0  0  0  0  0  0  0  0  0
    6.6917   -1.6417    0.0000 C   0  0  0  0  0  0  0  0  0  0  0  0
    5.3792   -5.4167    0.0000 C   0  0  0  0  0  0  0  0  0  0  0  0
    4.0792   -3.9167    0.0000 O   0  0  0  0  0  0  0  0  0  0  0  0
    4.7292   -2.7667    0.0000 C   0  0  0  0  0  0  0  0  0  0  0  0
    4.0792   -5.4167    0.0000 O   0  0  0  0  0  0  0  0  0  0  0  0
    7.7917   -3.6792    0.0000 Cl  0  0  0  0  0  0  0  0  0  0  0  0
    8.3292   -2.7917    0.0000 C   0  0  0  0  0  0  0  0  0  0  0  0
    4.7292   -2.0167    0.0000 C   0  0  0  0  0  0  0  0  0  0  0  0
    5.3792   -1.6417    0.0000 C   0  0  0  0  0  0  0  0  0  0  0  0
  2  5  2  0
  3  4  2  0
  4  1  1  0
  5  6  1  0
  6  1  1  0
  7  1  1  0
  8  2  1  0
  9  4  1  0
 10 14  1  0
 11  5  1  0
 12  7  1  0
 13 12  1  0
 14 11  2  0
 15  8  1  0
 16  3  1  0
 17 10  1  0
 19  7  1  0
 20 21  1  0
 21  9  2  0
  2  3  1  0
  9 13  1  0
 16 20  2  0
  8 10  2  0
M  END
>  <ID>  (279) 


>  <MOLENAME>  (279) 
APOMORPHINE HYDROCHLORIDE

>  <therap>  (279) 
emetic, antiparkinsonian, erextile dysfunction therapy

>  <ref>  (279) 
Biomed Pharmacother 49:197 (1995); J Impotence Res 14 Suppl 1:S53 (2002)

>  <cas#>  (279) 
41372-20-7, 314-19-2 [anhydrous], 58-00-4 [apomorphine]

>  <source>  (279) 
synthetic

>  <status>  (279) 
USP, BAN

>  <tradename>  (279) 
APOKYN

>  <SMILES>  (279) 
CN1CCc2cccc3c2C1Cc1c-3c(O)c(O)cc1

>  <standardized_failed>  (279) 
False

$$$$

     RDKit          2D

 13 14  0  0  0  0  0  0  0  0999 V2000
    4.8417   -1.9083    0.0000 C   0  0  0  0  0  0  0  0  0  0  0  0
    5.5542   -3.1458    0.0000 C   0  0  0  0  0  0  0  0  0  0  0  0
    5.5542   -1.4917    0.0000 O   0  0  0  0  0  0  0  0  0  0  0  0
    6.2708   -1.9042    0.0000 C   0  0  0  0  0  0  0  0  0  0  0  0
    4.8417   -2.7333    0.0000 C   0  0  0  0  0  0  0  0  0  0  0  0
    6.2708   -2.7333    0.0000 C   0  0  0  0  0  0  0  0  0  0  0  0
    4.1292   -1.4958    0.0000 C   0  0  0  0  0  0  0  0  0  0  0  0
    4.1292   -3.1458    0.0000 C   0  0  0  0  0  0  0  0  0  0  0  0
    6.9833   -1.4875    0.0000 O   0  0  0  0  0  0  0  0  0  0  0  0
    3.4167   -1.9083    0.0000 C   0  0  0  0  0  0  0  0  0  0  0  0
    3.4167   -2.7333    0.0000 C   0  0  0  0  0  0  0  0  0  0  0  0
    5.5542   -3.9708    0.0000 C   0  0  0  0  0  0  0  0  0  0  0  0
    2.7000   -1.4958    0.0000 O   0  0  0  0  0  0  0  0  0  0  0  0
  2  5  1  0
  3  1  1  0
  4  3  1  0
  5  1  2  0
  6  2  2  0
  7  1  1  0
  8  5  1  0
  9  4  2  0
 10  7  2  0
 11  8  2  0
 12  2  1  0
 13 10  1  0
  4  6  1  0
 11 10  1  0
M  END
>  <ID>  (280) 


>  <MOLENAME>  (280) 
HYMECHROME

>  <therap>  (280) 
choloretic, spasmolytic, sunscreen

>  <ref>  (280) 
Indian J Chem B 15:492 (1977)

>  <cas#>  (280) 
90-33-5

>  <source>  (280) 
Dalbergia volubilis, Eupatorium pauciflorum; LM-94

>  <status>  (280) 
USAN, INN, BAN, JAN

>  <tradename>  (280) 
CANTABILINE

>  <SMILES>  (280) 
Cc1cc(=O)oc2c1ccc(O)c2

>  <standardized_failed>  (280) 
False

$$$$

     RDKit          2D

 26 27  0  0  0  0  0  0  0  0999 V2000
    5.9000    1.0000    0.0000 S   0  0  0  0  0  0  0  0  0  0  0  0
    3.5792   -1.2500    0.0000 N   0  0  0  0  0  0  0  0  0  0  0  0
    6.8167   -2.0875    0.0000 C   0  0  0  0  0  0  0  0  0  0  0  0
    7.5250   -2.5000    0.0000 C   0  0  0  0  0  0  0  0  0  0  0  0
    3.9292   -0.3875    0.0000 C   0  0  0  0  0  0  0  0  0  0  0  0
    3.3917   -2.3667    0.0000 C   0  0  0  0  0  0  0  0  0  0  0  0
    5.6625   -1.5000    0.0000 C   0  0  0  0  0  0  0  0  0  0  0  0
    5.8875   -2.4417    0.0000 O   0  0  0  0  0  0  0  0  0  0  0  0
    4.8292   -2.4042    0.0000 C   0  0  0  0  0  0  0  0  0  0  0  0
    5.0042   -0.7250    0.0000 C   0  0  0  0  0  0  0  0  0  0  0  0
    6.5542    1.0000    0.0000 O   0  0  0  0  0  0  0  0  0  0  0  0
    5.8917    0.3375    0.0000 O   0  0  0  0  0  0  0  0  0  0  0  0
    6.8167   -1.2625    0.0000 O   0  0  0  0  0  0  0  0  0  0  0  0
    8.2500   -2.0875    0.0000 C   0  0  0  0  0  0  0  0  0  0  0  0
    2.6750   -1.6542    0.0000 C   0  0  0  0  0  0  0  0  0  0  0  0
    3.0042   -0.5250    0.0000 C   0  0  0  0  0  0  0  0  0  0  0  0
    5.2375    1.0000    0.0000 O   0  0  0  0  0  0  0  0  0  0  0  0
    5.8917    1.6625    0.0000 O   0  0  0  0  0  0  0  0  0  0  0  0
    4.5792   -1.2500    0.0000 C   0  0  0  0  0  0  0  0  0  0  0  0
    7.5292   -3.3250    0.0000 C   0  0  0  0  0  0  0  0  0  0  0  0
    6.8167   -3.7375    0.0000 O   0  0  0  0  0  0  0  0  0  0  0  0
    8.2500   -1.2625    0.0000 C   0  0  0  0  0  0  0  0  0  0  0  0
    8.9625   -2.5000    0.0000 C   0  0  0  0  0  0  0  0  0  0  0  0
    9.6750   -2.0875    0.0000 C   0  0  0  0  0  0  0  0  0  0  0  0
    8.9542   -0.8500    0.0000 C   0  0  0  0  0  0  0  0  0  0  0  0
    9.6667   -1.2625    0.0000 C   0  0  0  0  0  0  0  0  0  0  0  0
  3  8  1  0
  4  3  1  0
  5  2  1  0
  6  2  1  0
  7  9  1  0
  8  7  1  0
  9  6  1  0
 10  5  1  0
 11  1  2  0
 12  1  2  0
 13  3  2  0
 14  4  1  0
 15  6  1  0
 16  5  1  0
 17  1  1  0
 18  1  1  0
 19  2  1  0
 20  4  1  0
 21 20  1  0
 22 14  2  0
 23 14  1  0
 24 23  2  0
 25 22  1  0
 26 24  1  0
 16 15  1  0
 10  7  1  0
 25 26  2  0
M  END
>  <ID>  (281) 


>  <MOLENAME>  (281) 
ATROPINE SULFATE

>  <therap>  (281) 
anticholinergic, mydriatic

>  <ref>  (281) 
J Pharmacol Exp Ther 105:166 (1952); Toxicol Appl Pharmacol 18:185 (1971); Crit Care Clin 7:639 (1991)

>  <cas#>  (281) 
51-55-8, 5908-99-6 [atropine sulfate], 55-48-1 [anhydrous]

>  <source>  (281) 
Atropa and Datura spp

>  <status>  (281) 
USP, BAN

>  <tradename>  (281) 
ATROPISOL

>  <SMILES>  (281) 
CN1C2CCC1CC(OC(=O)C(CO)c1ccccc1)C2

>  <standardized_failed>  (281) 
False

$$$$

     RDKit          2D

 15 14  0  0  0  0  0  0  0  0999 V2000
    4.7875    0.4208    0.0000 N   0  0  0  0  0  0  0  0  0  0  0  0
    5.5042    0.0125    0.0000 C   0  0  0  0  0  0  0  0  0  0  0  0
    4.0750    0.0042    0.0000 C   0  0  0  0  0  0  0  0  0  0  0  0
    5.5042   -0.8125    0.0000 O   0  0  0  0  0  0  0  0  0  0  0  0
    3.3583    0.4167    0.0000 C   0  0  0  0  0  0  0  0  0  0  0  0
    4.0750   -0.8250    0.0000 C   0  0  0  0  0  0  0  0  0  0  0  0
    6.2167    0.4250    0.0000 C   0  0  0  0  0  0  0  0  0  0  0  0
    6.9333    0.0167    0.0000 N   0  0  0  0  0  0  0  0  0  0  0  0
    8.3875    0.1333    0.0000 Cl  0  0  0  0  0  0  0  0  0  0  0  0
    2.6458   -0.8250    0.0000 C   0  0  0  0  0  0  0  0  0  0  0  0
    3.3583   -1.2375    0.0000 C   0  0  0  0  0  0  0  0  0  0  0  0
    2.6458   -0.0000    0.0000 C   0  0  0  0  0  0  0  0  0  0  0  0
    3.3542    1.2417    0.0000 C   0  0  0  0  0  0  0  0  0  0  0  0
    4.7917   -1.2375    0.0000 C   0  0  0  0  0  0  0  0  0  0  0  0
    6.2125    1.2500    0.0000 C   0  0  0  0  0  0  0  0  0  0  0  0
  2  1  1  0
  3  1  1  0
  4  2  2  0
  5  3  2  0
  6  3  1  0
  7  2  1  0
  8  7  1  0
 10 12  2  0
 11  6  2  0
 12  5  1  0
 13  5  1  0
 14  6  1  0
 15  7  1  0
 11 10  1  0
M  END
>  <ID>  (282) 


>  <MOLENAME>  (282) 
TOCAINIDE HYDROCHLORIDE

>  <therap>  (282) 
anti-arrhythmic

>  <ref>  (282) 
J Med Chem 43:3792 (2000)

>  <cas#>  (282) 
41708-72-9

>  <source>  (282) 
synthetic

>  <status>  (282) 
USP

>  <tradename>  (282) 
nan

>  <SMILES>  (282) 
Cc1c(NC(=O)C(C)N)c(C)ccc1

>  <standardized_failed>  (282) 
False

$$$$

     RDKit          2D

 19 21  0  0  0  0  0  0  0  0999 V2000
    5.2917   -2.0917    0.0000 C   0  0  0  0  0  0  0  0  0  0  0  0
    4.6167   -2.2875    0.0000 C   0  0  0  0  0  0  0  0  0  0  0  0
    5.2917   -1.2417    0.0000 N   0  0  0  0  0  0  0  0  0  0  0  0
    4.6042   -3.9250    0.0000 C   0  0  0  0  0  0  0  0  0  0  0  0
    5.2542   -4.3000    0.0000 C   0  0  0  0  0  0  0  0  0  0  0  0
    6.1667   -2.2167    0.0000 N   0  0  0  0  0  0  0  0  0  0  0  0
    4.6042   -3.1750    0.0000 S   0  0  0  0  0  0  0  0  0  0  0  0
    4.1125   -1.4917    0.0000 N   0  0  0  0  0  0  0  0  0  0  0  0
    5.2542   -5.0500    0.0000 C   0  0  0  0  0  0  0  0  0  0  0  0
    4.6125   -0.8042    0.0000 C   0  0  0  0  0  0  0  0  0  0  0  0
    5.9667   -5.2792    0.0000 N   0  0  0  0  0  0  0  0  0  0  0  0
    4.6042   -5.4250    0.0000 N   0  0  0  0  0  0  0  0  0  0  0  0
    5.9292   -4.0667    0.0000 N   0  0  0  0  0  0  0  0  0  0  0  0
    3.9542   -4.3000    0.0000 N   0  0  0  0  0  0  0  0  0  0  0  0
    6.4042   -4.6792    0.0000 C   0  0  0  0  0  0  0  0  0  0  0  0
    3.9542   -5.0500    0.0000 C   0  0  0  0  0  0  0  0  0  0  0  0
    6.7042   -1.7792    0.0000 O   0  0  0  0  0  0  0  0  0  0  0  0
    6.1667   -2.9292    0.0000 O   0  0  0  0  0  0  0  0  0  0  0  0
    3.2375   -1.4042    0.0000 C   0  0  0  0  0  0  0  0  0  0  0  0
  2  1  2  0
  3  1  1  0
  4  7  1  0
  5  4  2  0
  6  1  1  0
  7  2  1  0
  8  2  1  0
  9  5  1  0
 10  3  2  0
 11  9  2  0
 12 16  2  0
 13  5  1  0
 14  4  1  0
 15 13  2  0
 16 14  1  0
 17  6  1  0
 18  6  2  0
 19  8  1  0
 10  8  1  0
  9 12  1  0
 11 15  1  0
M  CHG  2   6   1  17  -1
M  END
>  <ID>  (283) 


>  <MOLENAME>  (283) 
AZATHIOPRINE

>  <therap>  (283) 
immunosuppressant, antineoplastic, antirheumatic

>  <ref>  (283) 
J Rheumatol 23 Suppl 44:64 (1996); Pharmacotherapy 7:165 (1987); Mult Scler 1:379 (1996)

>  <cas#>  (283) 
446-86-6

>  <source>  (283) 
synthetic; BW-57-322

>  <status>  (283) 
USP, INN, BAN, JAN

>  <tradename>  (283) 
AZANIN

>  <SMILES>  (283) 
Cn1cnc([N+](=O)[O-])c1Sc1c2ncnc-2nc[nH]1

>  <standardized_failed>  (283) 
False

$$$$

     RDKit          2D

100103  0  0  0  0  0  0  0  0999 V2000
    7.6125   -6.3542    0.0000 N   0  0  0  0  0  0  0  0  0  0  0  0
   -1.8833   -0.6250    0.0000 N   0  0  0  0  0  0  0  0  0  0  0  0
    6.8042   -6.5292    0.0000 C   0  0  0  0  0  0  0  0  0  0  0  0
   -2.4458   -2.4917    0.0000 C   0  0  0  0  0  0  0  0  0  0  0  0
   -2.3333   -3.5167    0.0000 N   0  0  0  0  0  0  0  0  0  0  0  0
    1.7125   -4.6292    0.0000 N   0  0  0  0  0  0  0  0  0  0  0  0
    1.7667   -2.1792    0.0000 N   0  0  0  0  0  0  0  0  0  0  0  0
   -0.5708   -4.6167    0.0000 N   0  0  0  0  0  0  0  0  0  0  0  0
    7.6750   -5.5417    0.0000 C   0  0  0  0  0  0  0  0  0  0  0  0
    2.0167   -0.6875    0.0000 N   0  0  0  0  0  0  0  0  0  0  0  0
    0.4625    0.4375    0.0000 N   0  0  0  0  0  0  0  0  0  0  0  0
   -0.9750   -0.4375    0.0000 C   0  0  0  0  0  0  0  0  0  0  0  0
    1.2667   -3.0542    0.0000 C   0  0  0  0  0  0  0  0  0  0  0  0
    2.8000   -0.9375    0.0000 C   0  0  0  0  0  0  0  0  0  0  0  0
    1.0792   -5.2167    0.0000 C   0  0  0  0  0  0  0  0  0  0  0  0
   -1.5125   -4.6167    0.0000 C   0  0  0  0  0  0  0  0  0  0  0  0
    1.2750    0.4458    0.0000 C   0  0  0  0  0  0  0  0  0  0  0  0
    6.9917    0.1500    0.0000 N   0  0  0  0  0  0  0  0  0  0  0  0
    8.4792   -5.0917    0.0000 C   0  0  0  0  0  0  0  0  0  0  0  0
   -1.7583   -1.6542    0.0000 C   0  0  0  0  0  0  0  0  0  0  0  0
    1.7042   -3.7375    0.0000 C   0  0  0  0  0  0  0  0  0  0  0  0
    2.8000   -1.8417    0.0000 C   0  0  0  0  0  0  0  0  0  0  0  0
    0.0542   -5.2167    0.0000 C   0  0  0  0  0  0  0  0  0  0  0  0
    6.9792   -0.7167    0.0000 C   0  0  0  0  0  0  0  0  0  0  0  0
    7.8542   -2.9917    0.0000 C   0  0  0  0  0  0  0  0  0  0  0  0
    6.3917   -5.8167    0.0000 S   0  0  0  0  0  0  0  0  0  0  0  0
   -2.3583   -4.3417    0.0000 C   0  0  0  0  0  0  0  0  0  0  0  0
    8.4917   -4.2500    0.0000 N   0  0  0  0  0  0  0  0  0  0  0  0
    7.8542   -2.0917    0.0000 N   0  0  0  0  0  0  0  0  0  0  0  0
    3.6125   -2.3042    0.0000 C   0  0  0  0  0  0  0  0  0  0  0  0
    2.4542   -3.7417    0.0000 C   0  0  0  0  0  0  0  0  0  0  0  0
    6.9917    0.9833    0.0000 C   0  0  0  0  0  0  0  0  0  0  0  0
   -1.5375   -6.2167    0.0000 N   0  0  0  0  0  0  0  0  0  0  0  0
    8.4917   -3.4250    0.0000 C   0  0  0  0  0  0  0  0  0  0  0  0
   -0.6000    0.4375    0.0000 C   0  0  0  0  0  0  0  0  0  0  0  0
    2.0417    0.1708    0.0000 C   0  0  0  0  0  0  0  0  0  0  0  0
    6.2667    1.3958    0.0000 C   0  0  0  0  0  0  0  0  0  0  0  0
   -0.6208   -6.5167    0.0000 C   0  0  0  0  0  0  0  0  0  0  0  0
    0.0417   -6.0292    0.0000 C   0  0  0  0  0  0  0  0  0  0  0  0
    7.8542   -1.1875    0.0000 C   0  0  0  0  0  0  0  0  0  0  0  0
    4.5167   -1.9667    0.0000 C   0  0  0  0  0  0  0  0  0  0  0  0
    3.1417   -4.1917    0.0000 C   0  0  0  0  0  0  0  0  0  0  0  0
    6.4750   -7.2875    0.0000 C   0  0  0  0  0  0  0  0  0  0  0  0
   -1.5958   -7.5417    0.0000 N   0  0  0  0  0  0  0  0  0  0  0  0
   -2.0708   -6.9625    0.0000 C   0  0  0  0  0  0  0  0  0  0  0  0
    6.9167   -5.2042    0.0000 C   0  0  0  0  0  0  0  0  0  0  0  0
   10.4417   -0.5000    0.0000 C   0  0  0  0  0  0  0  0  0  0  0  0
   -3.1333   -2.3042    0.0000 O   0  0  0  0  0  0  0  0  0  0  0  0
   -0.4750   -0.8125    0.0000 O   0  0  0  0  0  0  0  0  0  0  0  0
    1.4292   -5.7792    0.0000 O   0  0  0  0  0  0  0  0  0  0  0  0
    3.5167   -0.4375    0.0000 O   0  0  0  0  0  0  0  0  0  0  0  0
    0.4542   -3.0542    0.0000 O   0  0  0  0  0  0  0  0  0  0  0  0
   -1.6625   -5.2792    0.0000 O   0  0  0  0  0  0  0  0  0  0  0  0
    1.2750    1.2583    0.0000 O   0  0  0  0  0  0  0  0  0  0  0  0
   -0.7583   -7.3667    0.0000 C   0  0  0  0  0  0  0  0  0  0  0  0
    9.2625   -5.4667    0.0000 O   0  0  0  0  0  0  0  0  0  0  0  0
   -3.2208   -4.3417    0.0000 C   0  0  0  0  0  0  0  0  0  0  0  0
    6.2042   -1.0000    0.0000 O   0  0  0  0  0  0  0  0  0  0  0  0
    7.0417   -3.2792    0.0000 O   0  0  0  0  0  0  0  0  0  0  0  0
    6.2667    2.2208    0.0000 O   0  0  0  0  0  0  0  0  0  0  0  0
    9.2125   -3.0125    0.0000 C   0  0  0  0  0  0  0  0  0  0  0  0
    4.5167   -1.2792    0.0000 O   0  0  0  0  0  0  0  0  0  0  0  0
    3.9000   -3.8250    0.0000 O   0  0  0  0  0  0  0  0  0  0  0  0
   10.4292    0.3500    0.0000 O   0  0  0  0  0  0  0  0  0  0  0  0
    8.7000   -0.7500    0.0000 C   0  0  0  0  0  0  0  0  0  0  0  0
    5.2042    1.4083    0.0000 N   0  0  0  0  0  0  0  0  0  0  0  0
   -1.0083   -1.9292    0.0000 C   0  0  0  0  0  0  0  0  0  0  0  0
    5.2292   -2.3417    0.0000 N   0  0  0  0  0  0  0  0  0  0  0  0
    7.7042    1.3958    0.0000 C   0  0  0  0  0  0  0  0  0  0  0  0
    9.4167   -1.1250    0.0000 C   0  0  0  0  0  0  0  0  0  0  0  0
    6.9542   -7.9542    0.0000 N   0  0  0  0  0  0  0  0  0  0  0  0
    5.6542   -7.3750    0.0000 C   0  0  0  0  0  0  0  0  0  0  0  0
    3.1417   -4.9667    0.0000 O   0  0  0  0  0  0  0  0  0  0  0  0
   11.1667   -1.0000    0.0000 O   0  0  0  0  0  0  0  0  0  0  0  0
   -3.9708   -4.7917    0.0000 C   0  0  0  0  0  0  0  0  0  0  0  0
   -2.3833    1.6583    0.0000 N   0  0  0  0  0  0  0  0  0  0  0  0
    2.7167    0.6333    0.0000 C   0  0  0  0  0  0  0  0  0  0  0  0
   -1.1333    0.9708    0.0000 C   0  0  0  0  0  0  0  0  0  0  0  0
    9.9167   -3.4250    0.0000 C   0  0  0  0  0  0  0  0  0  0  0  0
    4.8917    0.6583    0.0000 C   0  0  0  0  0  0  0  0  0  0  0  0
   -2.3833    0.9708    0.0000 C   0  0  0  0  0  0  0  0  0  0  0  0
   -0.6333   -2.6167    0.0000 C   0  0  0  0  0  0  0  0  0  0  0  0
    8.4250    0.9833    0.0000 C   0  0  0  0  0  0  0  0  0  0  0  0
    5.3167   -8.1292    0.0000 C   0  0  0  0  0  0  0  0  0  0  0  0
   -0.2583   -1.5292    0.0000 C   0  0  0  0  0  0  0  0  0  0  0  0
    7.7042    2.2208    0.0000 C   0  0  0  0  0  0  0  0  0  0  0  0
    5.1667   -6.7125    0.0000 C   0  0  0  0  0  0  0  0  0  0  0  0
   -4.6875   -4.3792    0.0000 C   0  0  0  0  0  0  0  0  0  0  0  0
   -3.9708   -5.6250    0.0000 C   0  0  0  0  0  0  0  0  0  0  0  0
   -1.7250    0.4708    0.0000 C   0  0  0  0  0  0  0  0  0  0  0  0
    3.5000    0.3500    0.0000 C   0  0  0  0  0  0  0  0  0  0  0  0
    4.0250    0.9875    0.0000 C   0  0  0  0  0  0  0  0  0  0  0  0
   10.6667   -3.0875    0.0000 C   0  0  0  0  0  0  0  0  0  0  0  0
   10.0125   -4.2417    0.0000 C   0  0  0  0  0  0  0  0  0  0  0  0
    4.5000   -8.2167    0.0000 C   0  0  0  0  0  0  0  0  0  0  0  0
    9.1750    1.3208    0.0000 C   0  0  0  0  0  0  0  0  0  0  0  0
   -1.2583   -3.2625    0.0000 C   0  0  0  0  0  0  0  0  0  0  0  0
   -5.4125   -4.7917    0.0000 C   0  0  0  0  0  0  0  0  0  0  0  0
   -4.6875   -6.0417    0.0000 C   0  0  0  0  0  0  0  0  0  0  0  0
   -5.4125   -5.6250    0.0000 C   0  0  0  0  0  0  0  0  0  0  0  0
  2 12  1  0
  3  1  2  0
  4 20  1  0
  5  4  1  0
  6 21  1  0
  7 22  1  0
  8 23  1  0
  9  1  1  0
 10 36  1  0
 11 17  1  0
 12 35  1  0
 13  7  1  0
 14 10  1  0
 15  6  1  0
 16 27  1  0
 17 36  1  0
 18 24  1  0
 19  9  1  0
 20  2  1  0
 21 13  1  0
 22 14  1  0
 23 15  1  0
 24 40  1  0
 25 34  1  0
 26  3  1  0
 27  5  1  0
 28 19  1  0
 29 25  1  0
 30 22  1  0
 31 21  1  0
 32 18  1  0
 33 38  1  0
 34 28  1  0
 35 11  1  0
 36 77  1  0
 37 32  1  0
 38 39  1  0
 39 23  1  0
 40 29  1  0
 41 30  1  0
 42 31  1  0
 43  3  1  0
 44 55  1  0
 45 33  2  0
 46  9  1  0
 47 70  1  0
 48  4  2  0
 49 12  2  0
 50 15  2  0
 51 14  2  0
 52 13  2  0
 53 16  2  0
 54 17  2  0
 55 38  2  0
 56 19  2  0
 57 27  1  0
 58 24  2  0
 59 25  2  0
 60 37  2  0
 61 34  1  0
 62 41  2  0
 63 42  2  0
 64 47  2  0
 65 40  1  0
 66 37  1  0
 67 20  1  0
 68 41  1  0
 69 32  1  0
 70 65  1  0
 71 43  1  0
 72 43  1  0
 73 42  1  0
 74 47  1  0
 75 57  1  0
 76 81  1  0
 77 91  1  0
 78 35  1  0
 79 61  1  0
 80 66  1  0
 81 90  1  0
 82 67  1  0
 83 69  1  0
 84 72  1  0
 85 67  1  0
 86 69  1  0
 87 72  1  0
 88 75  2  0
 89 75  1  0
 90 78  1  0
 91 92  1  0
 92 80  1  0
 93 79  1  0
 94 79  1  0
 95 84  1  0
 96 83  1  0
 97 82  1  0
 98 88  1  0
 99 89  2  0
100 99  1  0
 26 46  1  0
  8 16  1  0
 44 45  1  0
100 98  2  0
M  END
>  <ID>  (284) 


>  <MOLENAME>  (284) 
BACITRACIN

>  <therap>  (284) 
antibacterial

>  <ref>  (284) 
Anal Profiles Drug Subs 9:1 (1970)

>  <cas#>  (284) 
1405-87-4

>  <source>  (284) 
Bacillus licheniformis and B subtilis

>  <status>  (284) 
USP, INN, BAN, JAN

>  <tradename>  (284) 
nan

>  <SMILES>  (284) 
CCC(C)C(N)C1=NC(C(=O)NC(CC(C)C)C(=O)NC(CCC(=O)O)C(=O)NC(C(=O)NCCCCC2NC(=O)C(CC(N)=O)NC(=O)C(CC(=O)O)NC(=O)C(Cc3c[nH]cn3)NC(=O)C(Cc3ccccc3)NC(=O)C(C(C)CC)NC(=O)C(CCCN)NC2=O)C(C)CC)CS1

>  <standardized_failed>  (284) 
False

$$$$

     RDKit          2D

 14 14  0  0  0  0  0  0  0  0999 V2000
    2.3542    0.7333    0.0000 C   0  0  0  0  0  0  0  0  0  0  0  0
    2.3542   -0.0167    0.0000 C   0  0  0  0  0  0  0  0  0  0  0  0
    1.7042   -1.1417    0.0000 C   0  0  0  0  0  0  0  0  0  0  0  0
    1.7042   -0.3917    0.0000 C   0  0  0  0  0  0  0  0  0  0  0  0
    1.7042    1.1083    0.0000 O   0  0  0  0  0  0  0  0  0  0  0  0
    2.3542   -1.5250    0.0000 C   0  0  0  0  0  0  0  0  0  0  0  0
    1.0542   -1.5250    0.0000 C   0  0  0  0  0  0  0  0  0  0  0  0
    1.7042   -2.6542    0.0000 C   0  0  0  0  0  0  0  0  0  0  0  0
    3.0000    1.1083    0.0000 O   0  0  0  0  0  0  0  0  0  0  0  0
    2.3542   -2.2792    0.0000 C   0  0  0  0  0  0  0  0  0  0  0  0
    1.0542   -2.2792    0.0000 C   0  0  0  0  0  0  0  0  0  0  0  0
    1.7042   -3.4042    0.0000 Cl  0  0  0  0  0  0  0  0  0  0  0  0
    1.0542    0.7333    0.0000 N   0  0  0  0  0  0  0  0  0  0  0  0
    1.0542   -0.0167    0.0000 C   0  0  0  0  0  0  0  0  0  0  0  0
  2  1  1  0
  3  4  1  0
  4  2  1  0
  5  1  2  0
  6  3  2  0
  7  3  1  0
  8 11  1  0
  9  1  1  0
 10  6  1  0
 11  7  2  0
 12  8  1  0
 13 14  1  0
 14  4  1  0
  8 10  2  0
M  END
>  <ID>  (285) 


>  <MOLENAME>  (285) 
BACLOFEN

>  <therap>  (285) 
muscle relaxant (skeletal)

>  <ref>  (285) 
Drugs 8:1 (`974); N Engl J Med 343:625 (2000)

>  <cas#>  (285) 
1134-47-0

>  <source>  (285) 
synthetic

>  <status>  (285) 
USP, INN, BAN, JAN

>  <tradename>  (285) 
KEMSTRO

>  <SMILES>  (285) 
NCC(CC(=O)O)c1ccc(Cl)cc1

>  <standardized_failed>  (285) 
False

$$$$

     RDKit          2D

 36 39  0  0  0  0  0  0  0  0999 V2000
    3.0917   -2.7292    0.0000 C   0  0  0  0  0  0  0  0  0  0  0  0
    1.7917   -3.4792    0.0000 C   0  0  0  0  0  0  0  0  0  0  0  0
    3.8042   -2.5042    0.0000 C   0  0  0  0  0  0  0  0  0  0  0  0
    1.1417   -3.8542    0.0000 C   0  0  0  0  0  0  0  0  0  0  0  0
    3.0917   -3.4792    0.0000 C   0  0  0  0  0  0  0  0  0  0  0  0
    2.4417   -3.8542    0.0000 C   0  0  0  0  0  0  0  0  0  0  0  0
    1.1417   -4.6042    0.0000 C   0  0  0  0  0  0  0  0  0  0  0  0
    1.7917   -2.7292    0.0000 C   0  0  0  0  0  0  0  0  0  0  0  0
    2.4375   -2.3542    0.0000 C   0  0  0  0  0  0  0  0  0  0  0  0
    4.2417   -3.1000    0.0000 C   0  0  0  0  0  0  0  0  0  0  0  0
    0.5000   -3.4875    0.0000 C   0  0  0  0  0  0  0  0  0  0  0  0
    3.8042   -3.7125    0.0000 C   0  0  0  0  0  0  0  0  0  0  0  0
    3.9667   -1.7750    0.0000 C   0  0  0  0  0  0  0  0  0  0  0  0
    0.5000   -4.9792    0.0000 C   0  0  0  0  0  0  0  0  0  0  0  0
    4.5500   -2.5375    0.0000 O   0  0  0  0  0  0  0  0  0  0  0  0
    2.4417   -4.6042    0.0000 C   0  0  0  0  0  0  0  0  0  0  0  0
   -0.1500   -3.8625    0.0000 C   0  0  0  0  0  0  0  0  0  0  0  0
   -0.1500   -4.6042    0.0000 C   0  0  0  0  0  0  0  0  0  0  0  0
    5.3542   -2.5250    0.0000 C   0  0  0  0  0  0  0  0  0  0  0  0
    1.7917   -4.9792    0.0000 C   0  0  0  0  0  0  0  0  0  0  0  0
    3.0167   -0.0417    0.0000 C   0  0  0  0  0  0  0  0  0  0  0  0
    1.7917   -4.2292    0.0000 Cl  0  0  0  0  0  0  0  0  0  0  0  0
    3.4125   -1.2667    0.0000 C   0  0  0  0  0  0  0  0  0  0  0  0
    4.6792   -1.5417    0.0000 O   0  0  0  0  0  0  0  0  0  0  0  0
    3.5667   -0.5417    0.0000 O   0  0  0  0  0  0  0  0  0  0  0  0
    5.4167   -1.9917    0.0000 O   0  0  0  0  0  0  0  0  0  0  0  0
    3.1667    0.6875    0.0000 O   0  0  0  0  0  0  0  0  0  0  0  0
   -0.8083   -4.9875    0.0000 O   0  0  0  0  0  0  0  0  0  0  0  0
    3.1125   -1.9000    0.0000 C   0  0  0  0  0  0  0  0  0  0  0  0
    1.1417   -2.3542    0.0000 O   0  0  0  0  0  0  0  0  0  0  0  0
    1.1417   -3.1042    0.0000 C   0  0  0  0  0  0  0  0  0  0  0  0
    4.6667   -3.5875    0.0000 C   0  0  0  0  0  0  0  0  0  0  0  0
    5.8542   -3.0542    0.0000 C   0  0  0  0  0  0  0  0  0  0  0  0
    2.0500   -0.0292    0.0000 C   0  0  0  0  0  0  0  0  0  0  0  0
    6.8792   -2.6792    0.0000 C   0  0  0  0  0  0  0  0  0  0  0  0
    1.4917    0.9083    0.0000 C   0  0  0  0  0  0  0  0  0  0  0  0
  2  8  1  0
  3  1  1  0
  4  2  1  0
  5  1  1  0
  6  5  1  0
  7  4  1  0
  8  9  1  0
  9  1  1  0
 10  3  1  0
 11  4  1  0
 12  5  1  0
 13  3  1  0
 14  7  2  0
 15  3  1  0
 16  6  1  0
 17 11  2  0
 18 17  1  0
 19 15  1  0
 20 16  1  0
 21 25  1  0
 22  2  1  0
 23 13  1  0
 24 13  2  0
 25 23  1  0
 26 19  2  0
 27 21  2  0
 28 18  2  0
 29  1  1  0
 30  8  1  0
 31  4  1  0
 32 10  1  0
 33 19  1  0
 34 21  1  0
 35 33  1  0
 36 34  1  0
 12 10  1  0
  2  6  1  0
  7 20  1  0
 14 18  1  0
M  END
>  <ID>  (286) 


>  <MOLENAME>  (286) 
BECLOMETHASONE DIPROPIONATE

>  <therap>  (286) 
antiasthmatic, topical antiinflammatory

>  <ref>  (286) 
J Asthma 19:21 (1982); Clin Ther 4:472 (1982); Ann Allergy 49:127 (1982)

>  <cas#>  (286) 
5534-09-8, 4419-39-0 [beclomethasone]

>  <source>  (286) 
synthetic

>  <status>  (286) 
USP, INN, BAN, JAN

>  <tradename>  (286) 
BECLOVENT

>  <SMILES>  (286) 
CCC(=O)OCC(=O)C1(OC(=O)CC)C(C)CC2C3CCC4=CC(=O)C=CC4(C)C3(Cl)C(O)CC21C

>  <standardized_failed>  (286) 
False

$$$$

     RDKit          2D

 20 19  0  0  0  0  0  0  0  0999 V2000
    7.4917   -3.1542    0.0000 N   0  0  0  0  0  0  0  0  0  0  0  0
    5.5417   -4.2792    0.0000 N   0  0  0  0  0  0  0  0  0  0  0  0
    6.8417   -4.2792    0.0000 C   0  0  0  0  0  0  0  0  0  0  0  0
    6.1917   -3.9042    0.0000 C   0  0  0  0  0  0  0  0  0  0  0  0
    7.4917   -3.9042    0.0000 C   0  0  0  0  0  0  0  0  0  0  0  0
    6.1917   -5.4042    0.0000 N   0  0  0  0  0  0  0  0  0  0  0  0
    5.5417   -5.0292    0.0000 C   0  0  0  0  0  0  0  0  0  0  0  0
    6.8417   -5.0292    0.0000 C   0  0  0  0  0  0  0  0  0  0  0  0
    8.1417   -2.7792    0.0000 C   0  0  0  0  0  0  0  0  0  0  0  0
    8.2292   -3.9667    0.0000 Cl  0  0  0  0  0  0  0  0  0  0  0  0
    6.1917   -3.1542    0.0000 N   0  0  0  0  0  0  0  0  0  0  0  0
    6.8417   -2.7792    0.0000 C   0  0  0  0  0  0  0  0  0  0  0  0
    4.7042   -3.2417    0.0000 Cl  0  0  0  0  0  0  0  0  0  0  0  0
    4.8917   -5.4167    0.0000 C   0  0  0  0  0  0  0  0  0  0  0  0
    8.7917   -3.1542    0.0000 C   0  0  0  0  0  0  0  0  0  0  0  0
    8.1417   -2.0292    0.0000 C   0  0  0  0  0  0  0  0  0  0  0  0
    4.2375   -5.0417    0.0000 C   0  0  0  0  0  0  0  0  0  0  0  0
    6.8417   -2.0292    0.0000 C   0  0  0  0  0  0  0  0  0  0  0  0
    3.5875   -5.4167    0.0000 C   0  0  0  0  0  0  0  0  0  0  0  0
    7.4917   -1.6542    0.0000 C   0  0  0  0  0  0  0  0  0  0  0  0
  2  4  2  0
  3  5  1  0
  4  3  1  0
  5  1  1  0
  6  8  1  0
  7  6  2  0
  8  3  2  0
  9  1  2  0
 11  4  1  0
 12  1  1  0
 14  7  1  0
 15  9  1  0
 16  9  1  0
 17 14  1  0
 18 12  2  0
 19 17  1  0
 20 18  1  0
 20 16  2  0
  7  2  1  0
M  CHG  2   1   1  10  -1
M  END
>  <ID>  (287) 


>  <MOLENAME>  (287) 
AMPROLIUM

>  <therap>  (287) 
coccidiostat

>  <ref>  (287) 
JACS 82:2974 (1960); Appl Microbiol 16:961 (1968)

>  <cas#>  (287) 
121-25-5

>  <source>  (287) 
synthetic

>  <status>  (287) 
USP, INN, BAN

>  <tradename>  (287) 
AMPROL

>  <SMILES>  (287) 
CCCc1ncc(C[n+]2c(C)cccc2)c(N)n1

>  <standardized_failed>  (287) 
False

$$$$

     RDKit          2D

 19 18  0  0  0  0  0  0  0  0999 V2000
    4.5917   -5.4417    0.0000 C   0  0  0  0  0  0  0  0  0  0  0  0
    6.3667   -1.9792    0.0000 C   0  0  0  0  0  0  0  0  0  0  0  0
    4.5917   -4.6667    0.0000 C   0  0  0  0  0  0  0  0  0  0  0  0
    7.0917   -2.3667    0.0000 C   0  0  0  0  0  0  0  0  0  0  0  0
    5.1792   -4.2792    0.0000 C   0  0  0  0  0  0  0  0  0  0  0  0
    5.1792   -5.8292    0.0000 C   0  0  0  0  0  0  0  0  0  0  0  0
    6.4042   -1.3917    0.0000 O   0  0  0  0  0  0  0  0  0  0  0  0
    5.7792   -2.3667    0.0000 N   0  0  0  0  0  0  0  0  0  0  0  0
    5.7792   -4.6667    0.0000 C   0  0  0  0  0  0  0  0  0  0  0  0
    5.7792   -3.1292    0.0000 N   0  0  0  0  0  0  0  0  0  0  0  0
    5.7792   -5.4417    0.0000 C   0  0  0  0  0  0  0  0  0  0  0  0
    3.8667   -5.8417    0.0000 O   0  0  0  0  0  0  0  0  0  0  0  0
    7.1167   -3.1917    0.0000 N   0  0  0  0  0  0  0  0  0  0  0  0
    3.8625   -4.2792    0.0000 O   0  0  0  0  0  0  0  0  0  0  0  0
    5.1792   -6.6042    0.0000 O   0  0  0  0  0  0  0  0  0  0  0  0
    5.1792   -3.5167    0.0000 C   0  0  0  0  0  0  0  0  0  0  0  0
    7.2917   -4.0875    0.0000 Cl  0  0  0  0  0  0  0  0  0  0  0  0
    7.7917   -1.9292    0.0000 C   0  0  0  0  0  0  0  0  0  0  0  0
    8.5167   -2.3167    0.0000 O   0  0  0  0  0  0  0  0  0  0  0  0
  2  8  1  0
  3  1  2  0
  4  2  1  0
  5  3  1  0
  6  1  1  0
  7  2  2  0
  8 10  1  0
  9 11  1  0
 10 16  1  0
 11  6  2  0
 12  1  1  0
 13  4  1  0
 14  3  1  0
 15  6  1  0
 16  5  1  0
 18  4  1  0
 19 18  1  0
  9  5  2  0
M  END
>  <ID>  (288) 


>  <MOLENAME>  (288) 
BENSERAZIDE HYDROCHLORIDE

>  <therap>  (288) 
decarboxylase inhibitor

>  <ref>  (288) 
J Pharmacol Exper Ther 161:14 (1968); J Pharm Pharmacol 24:289 (1972); Adv Neurol 45:493 (1987)

>  <cas#>  (288) 
322-35-0

>  <source>  (288) 
synthetic; Ro4-4602

>  <status>  (288) 
USAN, INN, BAN, JAN

>  <tradename>  (288) 
MADOPA

>  <SMILES>  (288) 
NC(CO)C(=O)NNCc1ccc(O)c(O)c1O

>  <standardized_failed>  (288) 
False

$$$$

     RDKit          2D

 12 12  0  0  0  0  0  0  0  0999 V2000
    4.6417  -15.1042    0.0000 C   0  0  0  0  0  0  0  0  0  0  0  0
    3.8917  -15.1042    0.0000 C   0  0  0  0  0  0  0  0  0  0  0  0
    5.0167  -14.4625    0.0000 O   0  0  0  0  0  0  0  0  0  0  0  0
    3.5167  -15.7500    0.0000 C   0  0  0  0  0  0  0  0  0  0  0  0
    3.5167  -14.4542    0.0000 C   0  0  0  0  0  0  0  0  0  0  0  0
    2.3917  -15.1042    0.0000 C   0  0  0  0  0  0  0  0  0  0  0  0
    5.0125  -15.7542    0.0000 O   0  0  0  0  0  0  0  0  0  0  0  0
    1.6417  -15.1042    0.0000 N   0  0  0  0  0  0  0  0  0  0  0  0
    2.7667  -15.7500    0.0000 C   0  0  0  0  0  0  0  0  0  0  0  0
    2.7667  -14.4542    0.0000 C   0  0  0  0  0  0  0  0  0  0  0  0
    4.6292  -16.4042    0.0000 C   0  0  0  0  0  0  0  0  0  0  0  0
    5.0042  -17.0542    0.0000 C   0  0  0  0  0  0  0  0  0  0  0  0
  2  1  1  0
  3  1  2  0
  4  2  2  0
  5  2  1  0
  6 10  1  0
  7  1  1  0
  8  6  1  0
  9  4  1  0
 10  5  2  0
 11  7  1  0
 12 11  1  0
  9  6  2  0
M  END
>  <ID>  (289) 


>  <MOLENAME>  (289) 
BENZOCAINE

>  <therap>  (289) 
anesthetic (topical)

>  <ref>  (289) 
Anal Profiles Drug Subs 12:73 (1983)

>  <cas#>  (289) 
94-09-7

>  <source>  (289) 
synthetic

>  <status>  (289) 
USP, INN, BAN

>  <tradename>  (289) 
ANBESOL

>  <SMILES>  (289) 
CCOC(=O)c1ccc(N)cc1

>  <standardized_failed>  (289) 
False

$$$$

     RDKit          2D

 26 28  0  0  0  0  0  0  0  0999 V2000
    3.9417  -13.5667    0.0000 S   0  0  0  0  0  0  0  0  0  0  0  0
    3.3000  -13.9417    0.0000 C   0  0  0  0  0  0  0  0  0  0  0  0
    4.5917  -13.9417    0.0000 N   0  0  0  0  0  0  0  0  0  0  0  0
    1.3500  -13.5667    0.0000 S   0  0  0  0  0  0  0  0  0  0  0  0
    2.0042  -13.9417    0.0000 C   0  0  0  0  0  0  0  0  0  0  0  0
    3.3000  -14.6917    0.0000 C   0  0  0  0  0  0  0  0  0  0  0  0
    3.9417  -15.0667    0.0000 N   0  0  0  0  0  0  0  0  0  0  0  0
    4.5917  -14.6917    0.0000 C   0  0  0  0  0  0  0  0  0  0  0  0
    2.6542  -13.5667    0.0000 C   0  0  0  0  0  0  0  0  0  0  0  0
    2.0042  -14.6917    0.0000 C   0  0  0  0  0  0  0  0  0  0  0  0
    2.6542  -15.0667    0.0000 C   0  0  0  0  0  0  0  0  0  0  0  0
    3.3875  -13.0667    0.0000 O   0  0  0  0  0  0  0  0  0  0  0  0
    4.4500  -13.0125    0.0000 O   0  0  0  0  0  0  0  0  0  0  0  0
    1.7292  -12.9125    0.0000 O   0  0  0  0  0  0  0  0  0  0  0  0
    0.9667  -14.2167    0.0000 O   0  0  0  0  0  0  0  0  0  0  0  0
    0.6917  -13.1875    0.0000 N   0  0  0  0  0  0  0  0  0  0  0  0
    5.9000  -14.7042    0.0000 S   0  0  0  0  0  0  0  0  0  0  0  0
    1.3500  -15.0792    0.0000 Cl  0  0  0  0  0  0  0  0  0  0  0  0
    5.2500  -15.0750    0.0000 C   0  0  0  0  0  0  0  0  0  0  0  0
    7.2000  -14.7000    0.0000 C   0  0  0  0  0  0  0  0  0  0  0  0
    6.5500  -15.0750    0.0000 C   0  0  0  0  0  0  0  0  0  0  0  0
    7.8500  -15.0750    0.0000 C   0  0  0  0  0  0  0  0  0  0  0  0
    7.2000  -13.9500    0.0000 C   0  0  0  0  0  0  0  0  0  0  0  0
    7.8417  -13.5750    0.0000 C   0  0  0  0  0  0  0  0  0  0  0  0
    8.5000  -14.7042    0.0000 C   0  0  0  0  0  0  0  0  0  0  0  0
    8.5000  -13.9542    0.0000 C   0  0  0  0  0  0  0  0  0  0  0  0
  2  1  1  0
  3  1  1  0
  4  5  1  0
  5  9  2  0
  6  2  2  0
  7  8  2  0
  8  3  1  0
  9  2  1  0
 10  5  1  0
 11  6  1  0
 12  1  2  0
 13  1  2  0
 14  4  2  0
 15  4  2  0
 16  4  1  0
 17 19  1  0
 18 10  1  0
 19  8  1  0
 20 21  1  0
 21 17  1  0
 22 20  2  0
 23 20  1  0
 24 23  2  0
 25 22  1  0
 26 24  1  0
  7  6  1  0
 10 11  2  0
 26 25  2  0
M  END
>  <ID>  (290) 


>  <MOLENAME>  (290) 
BENZTHIAZIDE

>  <therap>  (290) 
diuretic, antihypertensive

>  <ref>  (290) 
Br Med J 1:1773 (1960); J Pharmacol Exp Ther 128:122 (1960); 131:271 (1961)

>  <cas#>  (290) 
91-33-8

>  <source>  (290) 
synthetic

>  <status>  (290) 
USP-XIII, INN, BAN, JAN

>  <tradename>  (290) 
AQUATAG

>  <SMILES>  (290) 
NS(=O)(=O)c1cc2c(cc1Cl)N=C(CSCc1ccccc1)NS2(=O)=O

>  <standardized_failed>  (290) 
False

$$$$

     RDKit          2D

 40 41  0  0  0  0  0  0  0  0999 V2000
   -0.3375   -2.4292    0.0000 C   0  0  0  0  0  0  0  0  0  0  0  0
   11.6917   -2.2750    0.0000 C   0  0  0  0  0  0  0  0  0  0  0  0
    0.2625   -2.1167    0.0000 C   0  0  0  0  0  0  0  0  0  0  0  0
   10.9417   -2.6167    0.0000 C   0  0  0  0  0  0  0  0  0  0  0  0
   -0.3375   -3.1792    0.0000 C   0  0  0  0  0  0  0  0  0  0  0  0
   11.6917   -1.5250    0.0000 C   0  0  0  0  0  0  0  0  0  0  0  0
   -1.0000   -2.0417    0.0000 C   0  0  0  0  0  0  0  0  0  0  0  0
   12.3375   -2.6500    0.0000 C   0  0  0  0  0  0  0  0  0  0  0  0
    0.8375   -2.4792    0.0000 C   0  0  0  0  0  0  0  0  0  0  0  0
   10.3417   -2.2042    0.0000 C   0  0  0  0  0  0  0  0  0  0  0  0
    2.6125   -2.2167    0.0000 C   0  0  0  0  0  0  0  0  0  0  0  0
    8.3542   -2.5667    0.0000 C   0  0  0  0  0  0  0  0  0  0  0  0
    9.6792   -2.5792    0.0000 C   0  0  0  0  0  0  0  0  0  0  0  0
    1.4375   -2.1667    0.0000 C   0  0  0  0  0  0  0  0  0  0  0  0
    3.8250   -2.2042    0.0000 C   0  0  0  0  0  0  0  0  0  0  0  0
    7.0292   -2.5542    0.0000 C   0  0  0  0  0  0  0  0  0  0  0  0
    2.0042   -2.5292    0.0000 C   0  0  0  0  0  0  0  0  0  0  0  0
    9.0250   -2.1917    0.0000 C   0  0  0  0  0  0  0  0  0  0  0  0
    7.7000   -2.1792    0.0000 C   0  0  0  0  0  0  0  0  0  0  0  0
    3.1875   -2.5792    0.0000 C   0  0  0  0  0  0  0  0  0  0  0  0
    4.4667   -2.5667    0.0000 C   0  0  0  0  0  0  0  0  0  0  0  0
    6.3875   -2.1792    0.0000 C   0  0  0  0  0  0  0  0  0  0  0  0
    5.7500   -2.5542    0.0000 C   0  0  0  0  0  0  0  0  0  0  0  0
    5.1042   -2.1917    0.0000 C   0  0  0  0  0  0  0  0  0  0  0  0
   -1.0000   -3.5542    0.0000 C   0  0  0  0  0  0  0  0  0  0  0  0
   12.3375   -1.1500    0.0000 C   0  0  0  0  0  0  0  0  0  0  0  0
   -1.6375   -2.4292    0.0000 C   0  0  0  0  0  0  0  0  0  0  0  0
   12.9875   -2.2750    0.0000 C   0  0  0  0  0  0  0  0  0  0  0  0
    0.3125   -3.5542    0.0000 C   0  0  0  0  0  0  0  0  0  0  0  0
   11.0417   -1.1500    0.0000 C   0  0  0  0  0  0  0  0  0  0  0  0
   -0.5458   -1.3917    0.0000 C   0  0  0  0  0  0  0  0  0  0  0  0
   -1.3750   -1.3917    0.0000 C   0  0  0  0  0  0  0  0  0  0  0  0
   12.8500   -3.3375    0.0000 C   0  0  0  0  0  0  0  0  0  0  0  0
   11.9625   -3.3000    0.0000 C   0  0  0  0  0  0  0  0  0  0  0  0
   -1.6375   -3.1792    0.0000 C   0  0  0  0  0  0  0  0  0  0  0  0
   12.9875   -1.5250    0.0000 C   0  0  0  0  0  0  0  0  0  0  0  0
    9.6750   -3.3292    0.0000 C   0  0  0  0  0  0  0  0  0  0  0  0
    1.4750   -1.4167    0.0000 C   0  0  0  0  0  0  0  0  0  0  0  0
    3.8250   -1.4542    0.0000 C   0  0  0  0  0  0  0  0  0  0  0  0
    7.0375   -3.3042    0.0000 C   0  0  0  0  0  0  0  0  0  0  0  0
  2  4  1  0
  3  1  1  0
  4 10  2  0
  5  1  2  0
  6  2  2  0
  7  1  1  0
  8  2  1  0
  9  3  2  0
 10 13  1  0
 11 17  1  0
 12 19  2  0
 13 18  2  0
 14  9  1  0
 15 20  1  0
 16 22  2  0
 17 14  2  0
 18 12  1  0
 19 16  1  0
 20 11  2  0
 21 15  2  0
 22 23  1  0
 23 24  2  0
 24 21  1  0
 25  5  1  0
 26  6  1  0
 27  7  1  0
 28  8  1  0
 29  5  1  0
 30  6  1  0
 31  7  1  0
 32  7  1  0
 33  8  1  0
 34  8  1  0
 35 27  1  0
 36 28  1  0
 37 13  1  0
 38 14  1  0
 39 15  1  0
 40 16  1  0
 25 35  1  0
 36 26  1  0
M  END
>  <ID>  (291) 


>  <MOLENAME>  (291) 
beta-CAROTENE

>  <therap>  (291) 
antioxidant; provitamin A

>  <ref>  (291) 
Nature 290:201 (1981); Atherosclerosis 112:187 (1995); J Am Coll Nutrition 18:426 (1999)

>  <cas#>  (291) 
7235-40-7

>  <source>  (291) 
provitamin A; widespread in plants and animals

>  <status>  (291) 
USP, INN

>  <tradename>  (291) 
SOLATENE

>  <SMILES>  (291) 
CC1=C(/C=C/C(C)=C/C=C/C(C)=C/C=C/C=C(C)/C=C/C=C(C)/C=C/C2=C(C)CCCC2(C)C)C(C)(C)CCC1

>  <standardized_failed>  (291) 
False

$$$$

     RDKit          2D

 28 31  0  0  0  0  0  0  0  0999 V2000
    6.9167   -3.5042    0.0000 C   0  0  0  0  0  0  0  0  0  0  0  0
    5.4792   -4.3375    0.0000 C   0  0  0  0  0  0  0  0  0  0  0  0
    4.7667   -4.7500    0.0000 C   0  0  0  0  0  0  0  0  0  0  0  0
    6.9167   -4.3375    0.0000 C   0  0  0  0  0  0  0  0  0  0  0  0
    6.2000   -4.7500    0.0000 C   0  0  0  0  0  0  0  0  0  0  0  0
    7.7000   -3.2500    0.0000 C   0  0  0  0  0  0  0  0  0  0  0  0
    4.7667   -5.5750    0.0000 C   0  0  0  0  0  0  0  0  0  0  0  0
    5.4792   -3.5042    0.0000 C   0  0  0  0  0  0  0  0  0  0  0  0
    6.1917   -3.0917    0.0000 C   0  0  0  0  0  0  0  0  0  0  0  0
    8.1792   -3.9167    0.0000 C   0  0  0  0  0  0  0  0  0  0  0  0
    4.0542   -4.3375    0.0000 C   0  0  0  0  0  0  0  0  0  0  0  0
    7.7000   -4.5875    0.0000 C   0  0  0  0  0  0  0  0  0  0  0  0
    4.0542   -5.9875    0.0000 C   0  0  0  0  0  0  0  0  0  0  0  0
    8.0375   -2.5000    0.0000 C   0  0  0  0  0  0  0  0  0  0  0  0
    6.2000   -5.5750    0.0000 C   0  0  0  0  0  0  0  0  0  0  0  0
    3.3417   -4.7500    0.0000 C   0  0  0  0  0  0  0  0  0  0  0  0
    3.3417   -5.5750    0.0000 C   0  0  0  0  0  0  0  0  0  0  0  0
    5.4792   -5.9875    0.0000 C   0  0  0  0  0  0  0  0  0  0  0  0
    5.4792   -5.1625    0.0000 F   0  0  0  0  0  0  0  0  0  0  0  0
    8.8542   -2.4125    0.0000 O   0  0  0  0  0  0  0  0  0  0  0  0
    2.6167   -6.0000    0.0000 O   0  0  0  0  0  0  0  0  0  0  0  0
    8.7667   -3.2667    0.0000 O   0  0  0  0  0  0  0  0  0  0  0  0
    6.9125   -2.6792    0.0000 C   0  0  0  0  0  0  0  0  0  0  0  0
    4.7625   -3.0792    0.0000 O   0  0  0  0  0  0  0  0  0  0  0  0
    4.7667   -3.9167    0.0000 C   0  0  0  0  0  0  0  0  0  0  0  0
    8.9167   -3.9250    0.0000 C   0  0  0  0  0  0  0  0  0  0  0  0
    7.5500   -1.8250    0.0000 C   0  0  0  0  0  0  0  0  0  0  0  0
    7.8875   -1.0750    0.0000 O   0  0  0  0  0  0  0  0  0  0  0  0
  2  8  1  0
  3  2  1  0
  4  1  1  0
  5  4  1  0
  6  1  1  0
  7  3  1  0
  8  9  1  0
  9  1  1  0
 10  6  1  0
 11  3  1  0
 12  4  1  0
 13  7  2  0
  6 14  1  0
 15  5  1  0
 16 11  2  0
 17 16  1  0
 18 15  1  0
  2 19  1  6
 20 14  2  0
 21 17  2  0
  6 22  1  6
  1 23  1  1
  8 24  1  1
  3 25  1  1
 10 26  1  1
 27 14  1  0
 28 27  1  0
 10 12  1  0
  2  5  1  0
 18  7  1  0
 13 17  1  0
M  END
>  <ID>  (292) 


>  <MOLENAME>  (292) 
BETAMETHASONE

>  <therap>  (292) 
glucocorticoid, antiinflammatory

>  <ref>  (292) 
Gut 3:312 (1962); J Endocrinol 165:79 (2000); Reprod Sci 17:186 (2010)

>  <cas#>  (292) 
378-44-9

>  <source>  (292) 
semisynthetic; SCH-4831

>  <status>  (292) 
USP, INN, BAN, JAN

>  <tradename>  (292) 
CELESTONE

>  <SMILES>  (292) 
C[C@H]1CC2C3CCC4=CC(=O)C=C[C@]4(C)[C@@]3(F)[C@@H](O)C[C@]2(C)[C@@]1(O)C(=O)CO

>  <standardized_failed>  (292) 
False

$$$$

     RDKit          2D

 12 10  0  0  0  0  0  0  0  0999 V2000
    3.9292   -1.1875    0.0000 C   0  0  0  0  0  0  0  0  0  0  0  0
    5.4375   -2.8417    0.0000 N   0  0  0  0  0  0  0  0  0  0  0  0
    3.7000   -1.8917    0.0000 O   0  0  0  0  0  0  0  0  0  0  0  0
    3.4250   -0.6292    0.0000 O   0  0  0  0  0  0  0  0  0  0  0  0
    5.8625   -1.7750    0.0000 Cl  0  0  0  0  0  0  0  0  0  0  0  0
    4.6542   -1.0250    0.0000 N   0  0  0  0  0  0  0  0  0  0  0  0
    4.9292   -2.2875    0.0000 C   0  0  0  0  0  0  0  0  0  0  0  0
    4.2042   -2.4500    0.0000 C   0  0  0  0  0  0  0  0  0  0  0  0
    5.0292   -3.5375    0.0000 C   0  0  0  0  0  0  0  0  0  0  0  0
    6.5667   -2.6000    0.0000 C   0  0  0  0  0  0  0  0  0  0  0  0
    6.0667   -3.4750    0.0000 C   0  0  0  0  0  0  0  0  0  0  0  0
    3.9750   -3.1625    0.0000 C   0  0  0  0  0  0  0  0  0  0  0  0
  2  7  1  0
  3  1  1  0
  4  1  2  0
  6  1  1  0
  7  8  1  0
  8  3  1  0
  9  2  1  0
 10  2  1  0
 11  2  1  0
 12  8  1  0
M  CHG  2   2   1   5  -1
M  END
>  <ID>  (293) 


>  <MOLENAME>  (293) 
BETHANECHOL CHLORIDE

>  <therap>  (293) 
cholinergic

>  <ref>  (293) 
J Neurol Neurosurgery Psychiatry 48:1297 (1985); Dis Colon Rectum 33:867 (1989)

>  <cas#>  (293) 
590-63-6, 674-38-4 [bethanechol]

>  <source>  (293) 
synthetic

>  <status>  (293) 
USP, BAN, JAN

>  <tradename>  (293) 
DUVOID

>  <SMILES>  (293) 
CC(C[N+](C)(C)C)OC(N)=O

>  <standardized_failed>  (293) 
False

$$$$

     RDKit          2D

 27 29  0  0  0  0  0  0  0  0999 V2000
    3.0917  -13.7667    0.0000 C   0  0  0  0  0  0  0  0  0  0  0  0
    6.3417  -12.6375    0.0000 C   0  0  0  0  0  0  0  0  0  0  0  0
   -0.1583  -12.6417    0.0000 C   0  0  0  0  0  0  0  0  0  0  0  0
    2.4417  -14.8917    0.0000 N   0  0  0  0  0  0  0  0  0  0  0  0
    2.4417  -13.3917    0.0000 C   0  0  0  0  0  0  0  0  0  0  0  0
    3.7417  -13.3917    0.0000 C   0  0  0  0  0  0  0  0  0  0  0  0
    3.0917  -14.5167    0.0000 C   0  0  0  0  0  0  0  0  0  0  0  0
    0.4917  -12.2667    0.0000 O   0  0  0  0  0  0  0  0  0  0  0  0
    5.6917  -12.2625    0.0000 O   0  0  0  0  0  0  0  0  0  0  0  0
    6.3417  -13.3875    0.0000 O   0  0  0  0  0  0  0  0  0  0  0  0
   -0.1583  -13.3917    0.0000 O   0  0  0  0  0  0  0  0  0  0  0  0
    3.7417  -12.6375    0.0000 C   0  0  0  0  0  0  0  0  0  0  0  0
    4.3875  -13.7667    0.0000 C   0  0  0  0  0  0  0  0  0  0  0  0
    2.4417  -12.6417    0.0000 C   0  0  0  0  0  0  0  0  0  0  0  0
    1.7917  -13.7667    0.0000 C   0  0  0  0  0  0  0  0  0  0  0  0
    1.1417  -12.6417    0.0000 C   0  0  0  0  0  0  0  0  0  0  0  0
    5.0417  -12.6375    0.0000 C   0  0  0  0  0  0  0  0  0  0  0  0
    1.7917  -12.2667    0.0000 C   0  0  0  0  0  0  0  0  0  0  0  0
    4.3875  -12.2542    0.0000 C   0  0  0  0  0  0  0  0  0  0  0  0
    1.1417  -13.3917    0.0000 C   0  0  0  0  0  0  0  0  0  0  0  0
    5.0417  -13.3917    0.0000 C   0  0  0  0  0  0  0  0  0  0  0  0
    2.4417  -15.6417    0.0000 C   0  0  0  0  0  0  0  0  0  0  0  0
   -0.8083  -12.2667    0.0000 C   0  0  0  0  0  0  0  0  0  0  0  0
    6.9917  -12.2625    0.0000 C   0  0  0  0  0  0  0  0  0  0  0  0
    3.7417  -14.8917    0.0000 C   0  0  0  0  0  0  0  0  0  0  0  0
    3.0917  -16.0167    0.0000 C   0  0  0  0  0  0  0  0  0  0  0  0
    3.7417  -15.6417    0.0000 C   0  0  0  0  0  0  0  0  0  0  0  0
  2  9  1  0
  3  8  1  0
  4  7  2  0
  5  1  1  0
  6  1  1  0
  7  1  1  0
  8 16  1  0
  9 17  1  0
 10  2  2  0
 11  3  2  0
 12  6  2  0
 13  6  1  0
 14  5  2  0
 15  5  1  0
 16 20  1  0
 17 21  1  0
 18 14  1  0
 19 12  1  0
 20 15  2  0
 21 13  2  0
 22  4  1  0
 23  3  1  0
 24  2  1  0
 25  7  1  0
 26 27  1  0
 27 25  2  0
 19 17  2  0
 16 18  2  0
 26 22  2  0
M  END
>  <ID>  (294) 


>  <MOLENAME>  (294) 
BISACODYL

>  <therap>  (294) 
cathartic

>  <ref>  (294) 
Arzneim Forsch 3:19 (1953); J Clin Gastroenterol 36:386 (2003)

>  <cas#>  (294) 
603-50-9

>  <source>  (294) 
synthetic

>  <status>  (294) 
USP, INN, BAN, JAN

>  <tradename>  (294) 
DULCOLAX

>  <SMILES>  (294) 
CC(=O)Oc1ccc(C(c2ccc(OC(C)=O)cc2)c2ncccc2)cc1

>  <standardized_failed>  (294) 
False

$$$$

     RDKit          2D

 21 20  0  0  0  0  0  0  0  0999 V2000
    4.8292   -4.8750    0.0000 C   0  0  0  0  0  0  0  0  0  0  0  0
    3.3792   -4.8542    0.0000 C   0  0  0  0  0  0  0  0  0  0  0  0
    5.5417   -4.4542    0.0000 C   0  0  0  0  0  0  0  0  0  0  0  0
    2.6667   -4.4292    0.0000 C   0  0  0  0  0  0  0  0  0  0  0  0
    4.1042   -4.4417    0.0000 S   0  0  0  0  0  0  0  0  0  0  0  0
    1.9417   -4.8375    0.0000 C   0  0  0  0  0  0  0  0  0  0  0  0
    6.2542   -4.8667    0.0000 C   0  0  0  0  0  0  0  0  0  0  0  0
    3.3750   -5.6792    0.0000 C   0  0  0  0  0  0  0  0  0  0  0  0
    4.8292   -5.7000    0.0000 C   0  0  0  0  0  0  0  0  0  0  0  0
    6.2542   -5.7000    0.0000 C   0  0  0  0  0  0  0  0  0  0  0  0
    1.9292   -5.6625    0.0000 C   0  0  0  0  0  0  0  0  0  0  0  0
    5.5417   -6.1125    0.0000 C   0  0  0  0  0  0  0  0  0  0  0  0
    2.6625   -6.0917    0.0000 C   0  0  0  0  0  0  0  0  0  0  0  0
    2.6792   -3.6042    0.0000 O   0  0  0  0  0  0  0  0  0  0  0  0
    5.5375   -3.6292    0.0000 O   0  0  0  0  0  0  0  0  0  0  0  0
    1.2375   -4.4167    0.0000 Cl  0  0  0  0  0  0  0  0  0  0  0  0
    6.9667   -4.4542    0.0000 Cl  0  0  0  0  0  0  0  0  0  0  0  0
    5.5417   -6.9375    0.0000 Cl  0  0  0  0  0  0  0  0  0  0  0  0
    2.6625   -6.9167    0.0000 Cl  0  0  0  0  0  0  0  0  0  0  0  0
    6.8542   -3.2792    0.0000 Na  0  0  0  0  0 15  0  0  0  0  0  0
    1.3292   -3.2417    0.0000 Na  0  0  0  0  0 15  0  0  0  0  0  0
  2  5  1  0
  3  1  2  0
  4  2  2  0
  5  1  1  0
  6  4  1  0
  7  3  1  0
  8  2  1  0
  9  1  1  0
 10 12  1  0
 11 13  1  0
 12  9  2  0
 13  8  2  0
 14  4  1  0
 15  3  1  0
 16  6  1  0
 17  7  1  0
 18 12  1  0
 19 13  1  0
 10  7  2  0
 11  6  2  0
M  CHG  4  14  -1  15  -1  20   1  21   1
M  END
>  <ID>  (295) 


>  <MOLENAME>  (295) 
BITHIONATE SODIUM

>  <therap>  (295) 
anthelmintic, antiseptic

>  <ref>  (295) 
Soap Sanit Chem 29:34, 90 (1953)

>  <cas#>  (295) 
97-18-7

>  <source>  (295) 
synthetic

>  <status>  (295) 
USAN, INN, BAN, JAN

>  <tradename>  (295) 
LOROTHIDOL

>  <SMILES>  (295) 
Oc1c(Sc2c(O)c(Cl)cc(Cl)c2)cc(Cl)cc1Cl

>  <standardized_failed>  (295) 
False

$$$$

     RDKit          2D

 48 53  0  0  0  0  0  0  0  0999 V2000
    8.2292   -3.2292    0.0000 N   0  0  0  0  0  0  0  0  0  0  0  0
    8.2292   -2.4917    0.0000 C   0  0  0  0  0  0  0  0  0  0  0  0
    6.9375   -2.4792    0.0000 C   0  0  0  0  0  0  0  0  0  0  0  0
    7.2667   -3.3667    0.0000 C   0  0  0  0  0  0  0  0  0  0  0  0
    7.5792   -2.1042    0.0000 O   0  0  0  0  0  0  0  0  0  0  0  0
    4.1375   -3.9917    0.0000 C   0  0  0  0  0  0  0  0  0  0  0  0
    2.8250   -4.7417    0.0000 C   0  0  0  0  0  0  0  0  0  0  0  0
    8.8792   -3.6042    0.0000 C   0  0  0  0  0  0  0  0  0  0  0  0
    9.5292   -3.2292    0.0000 C   0  0  0  0  0  0  0  0  0  0  0  0
    9.5292   -2.4792    0.0000 N   0  0  0  0  0  0  0  0  0  0  0  0
    2.1750   -5.1042    0.0000 C   0  0  0  0  0  0  0  0  0  0  0  0
    6.2042   -2.9000    0.0000 N   0  0  0  0  0  0  0  0  0  0  0  0
    3.4792   -5.1250    0.0000 C   0  0  0  0  0  0  0  0  0  0  0  0
    8.8792   -2.1042    0.0000 C   0  0  0  0  0  0  0  0  0  0  0  0
    4.1292   -4.7417    0.0000 C   0  0  0  0  0  0  0  0  0  0  0  0
    3.4792   -3.6167    0.0000 C   0  0  0  0  0  0  0  0  0  0  0  0
    4.7875   -3.6167    0.0000 C   0  0  0  0  0  0  0  0  0  0  0  0
    2.8292   -6.2417    0.0000 N   0  0  0  0  0  0  0  0  0  0  0  0
    4.7875   -2.8625    0.0000 C   0  0  0  0  0  0  0  0  0  0  0  0
    1.3292   -3.2792    0.0000 S   0  0  0  0  0  0  0  0  0  0  0  0
    3.4792   -2.8542    0.0000 N   0  0  0  0  0  0  0  0  0  0  0  0
    5.4042   -2.4917    0.0000 C   0  0  0  0  0  0  0  0  0  0  0  0
    3.4792   -5.8792    0.0000 C   0  0  0  0  0  0  0  0  0  0  0  0
    2.8250   -3.9917    0.0000 C   0  0  0  0  0  0  0  0  0  0  0  0
    4.1292   -2.4792    0.0000 C   0  0  0  0  0  0  0  0  0  0  0  0
    6.9542   -3.9292    0.0000 O   0  0  0  0  0  0  0  0  0  0  0  0
   10.1792   -3.6042    0.0000 O   0  0  0  0  0  0  0  0  0  0  0  0
    1.6792   -3.7875    0.0000 O   0  0  0  0  0  0  0  0  0  0  0  0
    1.0042   -2.5917    0.0000 O   0  0  0  0  0  0  0  0  0  0  0  0
    8.2417   -1.6042    0.0000 O   0  0  0  0  0  0  0  0  0  0  0  0
    8.8875   -4.4000    0.0000 C   0  0  0  0  0  0  0  0  0  0  0  0
    6.9417   -1.4542    0.0000 C   0  0  0  0  0  0  0  0  0  0  0  0
    5.3917   -1.6792    0.0000 O   0  0  0  0  0  0  0  0  0  0  0  0
    1.4542   -4.9042    0.0000 Br  0  0  0  0  0  0  0  0  0  0  0  0
    1.9250   -2.9292    0.0000 O   0  0  0  0  0  0  0  0  0  0  0  0
   10.1792   -2.1042    0.0000 C   0  0  0  0  0  0  0  0  0  0  0  0
    0.7417   -3.6167    0.0000 C   0  0  0  0  0  0  0  0  0  0  0  0
    4.7917   -5.1250    0.0000 C   0  0  0  0  0  0  0  0  0  0  0  0
    2.8375   -2.4875    0.0000 C   0  0  0  0  0  0  0  0  0  0  0  0
    8.8667   -1.2667    0.0000 C   0  0  0  0  0  0  0  0  0  0  0  0
    4.1250   -6.2500    0.0000 C   0  0  0  0  0  0  0  0  0  0  0  0
   10.1792   -1.2667    0.0000 C   0  0  0  0  0  0  0  0  0  0  0  0
    4.7792   -5.8750    0.0000 C   0  0  0  0  0  0  0  0  0  0  0  0
    8.1750   -4.8167    0.0000 C   0  0  0  0  0  0  0  0  0  0  0  0
    6.2917   -1.0667    0.0000 C   0  0  0  0  0  0  0  0  0  0  0  0
    7.5917   -1.0792    0.0000 C   0  0  0  0  0  0  0  0  0  0  0  0
    8.1792   -5.6417    0.0000 C   0  0  0  0  0  0  0  0  0  0  0  0
    7.4542   -4.4125    0.0000 C   0  0  0  0  0  0  0  0  0  0  0  0
  2  1  1  0
  3  4  1  0
  4  1  1  0
  5  2  1  0
  6 17  2  0
  7 24  1  0
  8  1  1  0
  9  8  1  0
 14 10  1  0
 11  7  2  0
  3 12  1  6
 13 15  2  0
 14  2  1  0
 15  6  1  0
 16 21  1  0
 17 19  1  0
 18 23  1  0
 19 22  1  0
 21 25  1  0
 22 12  1  0
 23 13  1  0
 16 24  1  1
 25 19  1  0
 26  4  2  0
 27  9  2  0
 28 20  2  0
 29 20  2  0
 30  2  1  0
 31  8  1  0
  3 32  1  0
 33 22  2  0
 34 11  1  0
 35 20  1  0
 36 10  1  0
 37 20  1  0
 38 15  1  0
 39 21  1  0
 14 40  1  6
 41 43  1  0
 42 40  1  0
 43 38  2  0
 44 31  1  0
 45 32  1  0
 46 32  1  0
 47 44  1  0
 48 44  1  0
  5  3  1  0
 10  9  1  0
 36 42  1  0
  6 16  1  0
  7 13  1  0
 23 41  2  0
 18 11  1  0
M  END
>  <ID>  (296) 


>  <MOLENAME>  (296) 
BROMOCRIPTINE MESYLATE

>  <therap>  (296) 
prolactin inhibitor, antiparkinsonian

>  <ref>  (296) 
Adv Drug Res 12:247 (1977); Drugs 36:67 (1988)

>  <cas#>  (296) 
22260-51-1, 25614-03-3 [bromocriptine]

>  <source>  (296) 
semisynthetic

>  <status>  (296) 
USP, BAN, JAN

>  <tradename>  (296) 
PARLODEL

>  <SMILES>  (296) 
CC(C)CC1C(=O)N2CCC[C@H]2C2(O)O[C@](NC(=O)C3C=C4c5c6c(c(Br)[nH]c6ccc5)C[C@H]4N(C)C3)(C(C)C)C(=O)N12

>  <standardized_failed>  (296) 
False

$$$$

     RDKit          2D

 14 13  0  0  0  0  0  0  0  0999 V2000
    0.2750   -0.8042    0.0000 S   0  0  0  0  0  0  0  0  0  0  0  0
    4.8167   -1.1792    0.0000 S   0  0  0  0  0  0  0  0  0  0  0  0
    0.2750   -1.5542    0.0000 O   0  0  0  0  0  0  0  0  0  0  0  0
    0.2750   -0.0542    0.0000 O   0  0  0  0  0  0  0  0  0  0  0  0
    4.8292   -2.1500    0.0000 O   0  0  0  0  0  0  0  0  0  0  0  0
    4.8000   -0.0250    0.0000 O   0  0  0  0  0  0  0  0  0  0  0  0
    4.1667   -0.8042    0.0000 O   0  0  0  0  0  0  0  0  0  0  0  0
    0.9250   -1.1792    0.0000 O   0  0  0  0  0  0  0  0  0  0  0  0
   -0.3750   -1.1792    0.0000 C   0  0  0  0  0  0  0  0  0  0  0  0
    5.4667   -0.8042    0.0000 C   0  0  0  0  0  0  0  0  0  0  0  0
    3.5167   -1.1792    0.0000 C   0  0  0  0  0  0  0  0  0  0  0  0
    1.5750   -0.8042    0.0000 C   0  0  0  0  0  0  0  0  0  0  0  0
    2.2250   -1.1792    0.0000 C   0  0  0  0  0  0  0  0  0  0  0  0
    2.8667   -0.8042    0.0000 C   0  0  0  0  0  0  0  0  0  0  0  0
  2  7  1  0
  3  1  2  0
  4  1  2  0
  5  2  2  0
  6  2  2  0
  7 11  1  0
  8  1  1  0
  9  1  1  0
 10  2  1  0
 11 14  1  0
 12  8  1  0
 13 12  1  0
 14 13  1  0
M  END
>  <ID>  (297) 


>  <MOLENAME>  (297) 
BUSULFAN

>  <therap>  (297) 
antineoplastic, alkylating agent

>  <ref>  (297) 
Arzneim Forsch 20:1467 (1970); Exp Hematol 2:101 (1974); Mutat Res 168:15 (1986)

>  <cas#>  (297) 
55-98-1

>  <source>  (297) 
synthetic

>  <status>  (297) 
USP, INN, BAN, JAN

>  <tradename>  (297) 
MYLERAN

>  <SMILES>  (297) 
CS(=O)(=O)OCCCCOS(C)(=O)=O

>  <standardized_failed>  (297) 
False

$$$$

     RDKit          2D

 14 15  0  0  0  0  0  0  0  0999 V2000
    3.8875   -2.6000    0.0000 C   0  0  0  0  0  0  0  0  0  0  0  0
    3.8875   -1.8417    0.0000 C   0  0  0  0  0  0  0  0  0  0  0  0
    3.2292   -2.9750    0.0000 N   0  0  0  0  0  0  0  0  0  0  0  0
    2.5875   -1.8417    0.0000 N   0  0  0  0  0  0  0  0  0  0  0  0
    2.5875   -2.6000    0.0000 C   0  0  0  0  0  0  0  0  0  0  0  0
    3.2292   -1.4667    0.0000 C   0  0  0  0  0  0  0  0  0  0  0  0
    5.1917   -2.6000    0.0000 N   0  0  0  0  0  0  0  0  0  0  0  0
    4.5417   -1.4625    0.0000 N   0  0  0  0  0  0  0  0  0  0  0  0
    5.1917   -1.8417    0.0000 C   0  0  0  0  0  0  0  0  0  0  0  0
    1.9375   -2.9750    0.0000 O   0  0  0  0  0  0  0  0  0  0  0  0
    3.2292   -0.7167    0.0000 O   0  0  0  0  0  0  0  0  0  0  0  0
    3.2292   -3.7250    0.0000 C   0  0  0  0  0  0  0  0  0  0  0  0
    1.9292   -1.4667    0.0000 C   0  0  0  0  0  0  0  0  0  0  0  0
    4.5417   -0.7125    0.0000 C   0  0  0  0  0  0  0  0  0  0  0  0
  2  1  2  0
  3  1  1  0
  4  5  1  0
  5  3  1  0
  6  2  1  0
  7  1  1  0
  8  2  1  0
  9  7  2  0
 10  5  2  0
 11  6  2  0
 12  3  1  0
 13  4  1  0
 14  8  1  0
  8  9  1  0
  4  6  1  0
M  END
>  <ID>  (298) 


>  <MOLENAME>  (298) 
CAFFEINE

>  <therap>  (298) 
CNS stimulant

>  <ref>  (298) 
Clin Pharmacol Ther 32:98 (1982); Dev Pharmacol Ther 6:315 (1983)

>  <cas#>  (298) 
58-08-2, 5743-12-4 [monohydrate]

>  <source>  (298) 
Cofea, Theobroma, Camelia and Cola spp

>  <status>  (298) 
USP, INN, BAN, JAN

>  <tradename>  (298) 
NODOZ

>  <SMILES>  (298) 
Cn1c(=O)c2c(ncn2C)n(C)c1=O

>  <standardized_failed>  (298) 
False

$$$$

     RDKit          2D

 11 12  0  0  0  0  0  0  0  0999 V2000
    5.3917   -2.5917    0.0000 C   0  0  0  0  0  0  0  0  0  0  0  0
    5.3792   -4.0500    0.0000 C   0  0  0  0  0  0  0  0  0  0  0  0
    4.2167   -3.2875    0.0000 C   0  0  0  0  0  0  0  0  0  0  0  0
    5.3917   -5.3375    0.0000 C   0  0  0  0  0  0  0  0  0  0  0  0
    4.2167   -4.6500    0.0000 C   0  0  0  0  0  0  0  0  0  0  0  0
    6.5792   -3.2875    0.0000 C   0  0  0  0  0  0  0  0  0  0  0  0
    6.5792   -4.6500    0.0000 C   0  0  0  0  0  0  0  0  0  0  0  0
    3.5167   -2.8417    0.0000 O   0  0  0  0  0  0  0  0  0  0  0  0
    5.3917   -1.8417    0.0000 C   0  0  0  0  0  0  0  0  0  0  0  0
    6.2042   -4.0542    0.0000 C   0  0  0  0  0  0  0  0  0  0  0  0
    4.4875   -4.0542    0.0000 C   0  0  0  0  0  0  0  0  0  0  0  0
  1  2  1  0
  3  1  1  0
  4  2  1  0
  5  3  1  0
  6  1  1  0
  7  6  1  0
  8  3  2  0
  1  9  1  1
  2 10  1  0
  2 11  1  0
  4  7  1  6
  4  5  1  0
M  END
>  <ID>  (299) 


>  <MOLENAME>  (299) 
CAMPHOR (1R)

>  <therap>  (299) 
analgesic, antiinfective, antipruritic

>  <ref>  (299) 
Drug Intell Clin Pharm 11:110 (1977); Clin Pediatr 16:901 (1977); Clin Toxicol 44:357 (2006)

>  <cas#>  (299) 
464-49-3; 76-22-2

>  <source>  (299) 
Cinnamomum camphora

>  <status>  (299) 
USP, JAN

>  <tradename>  (299) 
nan

>  <SMILES>  (299) 
CC1(C)[C@@H]2CC[C@@]1(C)C(=O)C2

>  <standardized_failed>  (299) 
False

$$$$

     RDKit          2D

 52 52  0  0  0  0  0  0  0  0999 V2000
    6.5292   -2.6000    0.0000 C   0  0  0  0  0  0  0  0  0  0  0  0
    8.1625   -2.6500    0.0000 N   0  0  0  0  0  0  0  0  0  0  0  0
    8.9750   -2.3000    0.0000 C   0  0  0  0  0  0  0  0  0  0  0  0
    5.7042   -2.6000    0.0000 N   0  0  0  0  0  0  0  0  0  0  0  0
    7.2875   -2.2750    0.0000 C   0  0  0  0  0  0  0  0  0  0  0  0
    3.9250   -1.4125    0.0000 S   0  0  0  0  0  0  0  0  0  0  0  0
    6.0125   -4.8042    0.0000 N   0  0  0  0  0  0  0  0  0  0  0  0
    7.9500   -5.3375    0.0000 N   0  0  0  0  0  0  0  0  0  0  0  0
    5.2292   -3.4250    0.0000 C   0  0  0  0  0  0  0  0  0  0  0  0
    6.2000   -5.8375    0.0000 C   0  0  0  0  0  0  0  0  0  0  0  0
    5.3875   -4.2125    0.0000 C   0  0  0  0  0  0  0  0  0  0  0  0
    8.7542   -5.6750    0.0000 C   0  0  0  0  0  0  0  0  0  0  0  0
    7.1375   -5.8375    0.0000 C   0  0  0  0  0  0  0  0  0  0  0  0
    9.4750   -2.8042    0.0000 C   0  0  0  0  0  0  0  0  0  0  0  0
    9.6792   -1.1875    0.0000 N   0  0  0  0  0  0  0  0  0  0  0  0
    9.6792   -0.3625    0.0000 C   0  0  0  0  0  0  0  0  0  0  0  0
    8.9625   -1.5875    0.0000 C   0  0  0  0  0  0  0  0  0  0  0  0
    9.4792   -3.6792    0.0000 N   0  0  0  0  0  0  0  0  0  0  0  0
    6.7042   -3.3667    0.0000 C   0  0  0  0  0  0  0  0  0  0  0  0
    9.5125   -5.1667    0.0000 C   0  0  0  0  0  0  0  0  0  0  0  0
    7.8875   -4.1792    0.0000 C   0  0  0  0  0  0  0  0  0  0  0  0
    3.1292   -4.2417    0.0000 C   0  0  0  0  0  0  0  0  0  0  0  0
    8.9667    0.0500    0.0000 N   0  0  0  0  0  0  0  0  0  0  0  0
    7.6292   -3.3667    0.0000 N   0  0  0  0  0  0  0  0  0  0  0  0
    2.5417   -4.6125    0.0000 C   0  0  0  0  0  0  0  0  0  0  0  0
   10.3917    0.0500    0.0000 N   0  0  0  0  0  0  0  0  0  0  0  0
    3.9167   -0.7292    0.0000 O   0  0  0  0  0  0  0  0  0  0  0  0
    3.2500   -1.4125    0.0000 O   0  0  0  0  0  0  0  0  0  0  0  0
    9.8875   -4.4667    0.0000 C   0  0  0  0  0  0  0  0  0  0  0  0
    4.6042   -4.2292    0.0000 C   0  0  0  0  0  0  0  0  0  0  0  0
    3.9042   -4.7417    0.0000 N   0  0  0  0  0  0  0  0  0  0  0  0
    7.2542   -1.5875    0.0000 O   0  0  0  0  0  0  0  0  0  0  0  0
    4.5750   -3.4250    0.0000 O   0  0  0  0  0  0  0  0  0  0  0  0
    5.7625   -6.4917    0.0000 O   0  0  0  0  0  0  0  0  0  0  0  0
    8.7542   -6.4250    0.0000 O   0  0  0  0  0  0  0  0  0  0  0  0
   10.1625   -2.5250    0.0000 O   0  0  0  0  0  0  0  0  0  0  0  0
    7.4417   -4.7417    0.0000 O   0  0  0  0  0  0  0  0  0  0  0  0
    3.9167   -2.0875    0.0000 O   0  0  0  0  0  0  0  0  0  0  0  0
    4.5917   -1.4125    0.0000 O   0  0  0  0  0  0  0  0  0  0  0  0
    3.1292   -3.5167    0.0000 O   0  0  0  0  0  0  0  0  0  0  0  0
    8.7000   -4.1792    0.0000 N   0  0  0  0  0  0  0  0  0  0  0  0
   10.0667   -5.7000    0.0000 N   0  0  0  0  0  0  0  0  0  0  0  0
    8.2500   -1.1875    0.0000 C   0  0  0  0  0  0  0  0  0  0  0  0
    8.2500   -0.3542    0.0000 C   0  0  0  0  0  0  0  0  0  0  0  0
    7.1375   -6.6500    0.0000 C   0  0  0  0  0  0  0  0  0  0  0  0
    1.8542   -4.2125    0.0000 C   0  0  0  0  0  0  0  0  0  0  0  0
    1.0792   -4.6750    0.0000 N   0  0  0  0  0  0  0  0  0  0  0  0
    1.9250   -1.6167    0.0000 N   0  0  0  0  0  0  0  0  0  0  0  0
    7.7625   -7.0875    0.0000 O   0  0  0  0  0  0  0  0  0  0  0  0
    1.1417   -2.0250    0.0000 C   0  0  0  0  0  0  0  0  0  0  0  0
    1.8292   -3.3375    0.0000 C   0  0  0  0  0  0  0  0  0  0  0  0
    1.1417   -2.9000    0.0000 C   0  0  0  0  0  0  0  0  0  0  0  0
  2  5  1  0
  3  2  1  0
  4  1  1  0
  5  1  1  0
  7 11  1  0
  8 13  1  0
  9  4  1  0
 10  7  1  0
 11  9  1  0
 12  8  1  0
 13 10  1  0
 14  3  1  0
 15 17  1  0
 16 15  1  0
 17  3  1  0
 18 14  1  0
 19  1  2  0
 20 29  1  0
 21 24  1  0
 22 31  1  0
 23 44  1  0
 24 19  1  0
 25 22  1  0
 26 16  2  0
 27  6  2  0
 28  6  2  0
 29 18  1  0
 30 11  1  0
 31 30  1  0
 32  5  2  0
 33  9  2  0
 34 10  2  0
 35 12  2  0
 36 14  2  0
 37 21  2  0
 38  6  1  0
 39  6  1  0
 40 22  2  0
 41 21  1  0
 42 20  1  0
 43 17  1  0
 44 43  1  0
 45 13  1  0
 46 25  1  0
 47 46  1  0
 48 50  1  0
 49 45  1  0
 50 52  1  0
 51 46  1  0
 52 51  1  0
 16 23  1  0
 20 12  1  0
M  END
>  <ID>  (300) 


>  <MOLENAME>  (300) 
CAPREOMYCIN SULFATE

>  <therap>  (300) 
antibacterial, tuberculostatic

>  <ref>  (300) 
Ann NY Acad Sci 135:947, 960 (1966); Antibiot Chemother 16:27 (1970)

>  <cas#>  (300) 
1405-37-4, 11003-38-6 [capreomycin]

>  <source>  (300) 
 Streptomyces capreolis; 34977

>  <status>  (300) 
USP, INN, BAN, JAN

>  <tradename>  (300) 
CAPASTAT

>  <SMILES>  (300) 
N=C1NCCC(C2NC(=O)/C(=C\NC(N)=O)NC(=O)C(CNC(=O)CC(N)CCCN)NC(=O)C(CO)NC(=O)C(N)CNC2=O)N1

>  <standardized_failed>  (300) 
False

$$$$

     RDKit          2D

 11  9  0  0  0  0  0  0  0  0999 V2000
   -0.9208   -1.1500    0.0000 C   0  0  0  0  0  0  0  0  0  0  0  0
    0.3792    1.1000    0.0000 N   0  0  0  0  0  0  0  0  0  0  0  0
   -0.2708   -1.5250    0.0000 O   0  0  0  0  0  0  0  0  0  0  0  0
    2.7667    1.1333    0.0000 Cl  0  0  0  0  0  0  0  0  0  0  0  0
   -1.5708   -1.5250    0.0000 N   0  0  0  0  0  0  0  0  0  0  0  0
   -0.9208   -0.4000    0.0000 O   0  0  0  0  0  0  0  0  0  0  0  0
   -0.2708   -0.0250    0.0000 C   0  0  0  0  0  0  0  0  0  0  0  0
   -0.2708    0.7250    0.0000 C   0  0  0  0  0  0  0  0  0  0  0  0
    1.2417    1.5333    0.0000 C   0  0  0  0  0  0  0  0  0  0  0  0
    0.3667    2.1250    0.0000 C   0  0  0  0  0  0  0  0  0  0  0  0
    1.3667    0.3750    0.0000 C   0  0  0  0  0  0  0  0  0  0  0  0
  2  8  1  0
  3  1  2  0
  5  1  1  0
  6  1  1  0
  7  6  1  0
  8  7  1  0
  9  2  1  0
 10  2  1  0
 11  2  1  0
M  CHG  2   2   1   4  -1
M  END
>  <ID>  (301) 


>  <MOLENAME>  (301) 
CARBACHOL

>  <therap>  (301) 
cholinergic, miotic

>  <ref>  (301) 
J Pharmacol Exp Ther 58:337 (1936); Eur J Respir Dis 64 Suppl 128:417 (1983); Am J Opthalmol 107:7 (1989)

>  <cas#>  (301) 
51-83-2

>  <source>  (301) 
synthetic

>  <status>  (301) 
USP, INN, BAN, JAN

>  <tradename>  (301) 
JESTRYL

>  <SMILES>  (301) 
C[N+](C)(C)CCOC(N)=O

>  <standardized_failed>  (301) 
False

$$$$

     RDKit          2D

 18 20  0  0  0  0  0  0  0  0999 V2000
    2.1500   -0.4167    0.0000 N   0  0  0  0  0  0  0  0  0  0  0  0
    2.1417   -1.1667    0.0000 C   0  0  0  0  0  0  0  0  0  0  0  0
    2.8250   -0.0917    0.0000 C   0  0  0  0  0  0  0  0  0  0  0  0
    1.4750   -0.0875    0.0000 C   0  0  0  0  0  0  0  0  0  0  0  0
    1.7750    1.2333    0.0000 C   0  0  0  0  0  0  0  0  0  0  0  0
    2.6000    1.2208    0.0000 C   0  0  0  0  0  0  0  0  0  0  0  0
    2.9875    0.6333    0.0000 C   0  0  0  0  0  0  0  0  0  0  0  0
    1.3042    0.6458    0.0000 C   0  0  0  0  0  0  0  0  0  0  0  0
    1.4917   -1.5375    0.0000 O   0  0  0  0  0  0  0  0  0  0  0  0
    2.7917   -1.5417    0.0000 N   0  0  0  0  0  0  0  0  0  0  0  0
    0.9167   -0.5917    0.0000 C   0  0  0  0  0  0  0  0  0  0  0  0
    3.3667   -0.5917    0.0000 C   0  0  0  0  0  0  0  0  0  0  0  0
    0.5917    0.8708    0.0000 C   0  0  0  0  0  0  0  0  0  0  0  0
    3.7000    0.8583    0.0000 C   0  0  0  0  0  0  0  0  0  0  0  0
    4.0792   -0.3750    0.0000 C   0  0  0  0  0  0  0  0  0  0  0  0
    0.2042   -0.3750    0.0000 C   0  0  0  0  0  0  0  0  0  0  0  0
    4.2417    0.3500    0.0000 C   0  0  0  0  0  0  0  0  0  0  0  0
    0.0375    0.3583    0.0000 C   0  0  0  0  0  0  0  0  0  0  0  0
  2  1  1  0
  3  1  1  0
  4  1  1  0
  5  8  1  0
  6  7  1  0
  7  3  2  0
  8  4  2  0
  9  2  2  0
 10  2  1  0
 11  4  1  0
 12  3  1  0
 13  8  1  0
 14  7  1  0
 15 12  2  0
 16 11  2  0
 17 15  1  0
 18 16  1  0
  5  6  2  0
 18 13  2  0
 14 17  2  0
M  END
>  <ID>  (302) 


>  <MOLENAME>  (302) 
CARBAMAZEPINE

>  <therap>  (302) 
analgesic, anticonvulsant

>  <ref>  (302) 
Med Exp 11:191 (1964); Anal Profiles Drug Subs 9:87 !980); J Clin Pharm Ther 20:31 (1995)

>  <cas#>  (302) 
298-46-4

>  <source>  (302) 
synthetic

>  <status>  (302) 
USP, INN, BAN, JAN

>  <tradename>  (302) 
TEGRETOL

>  <SMILES>  (302) 
NC(=O)N1c2c(C=Cc3c1cccc3)cccc2

>  <standardized_failed>  (302) 
False

$$$$

     RDKit          2D

 28 28  0  0  0  0  0  0  0  0999 V2000
    4.4667   -1.9542    0.0000 N   0  0  0  0  0  0  0  0  0  0  0  0
    4.2542   -2.7542    0.0000 C   0  0  0  0  0  0  0  0  0  0  0  0
    3.6667   -1.7417    0.0000 C   0  0  0  0  0  0  0  0  0  0  0  0
    3.4542   -2.5417    0.0000 C   0  0  0  0  0  0  0  0  0  0  0  0
    5.2792   -1.8250    0.0000 C   0  0  0  0  0  0  0  0  0  0  0  0
    5.1292   -3.2250    0.0000 S   0  0  0  0  0  0  0  0  0  0  0  0
    5.8875   -2.3792    0.0000 C   0  0  0  0  0  0  0  0  0  0  0  0
    1.9167   -2.9625    0.0000 C   0  0  0  0  0  0  0  0  0  0  0  0
    2.7417   -2.9625    0.0000 N   0  0  0  0  0  0  0  0  0  0  0  0
    1.5042   -3.6750    0.0000 C   0  0  0  0  0  0  0  0  0  0  0  0
    5.5167   -1.0292    0.0000 C   0  0  0  0  0  0  0  0  0  0  0  0
    1.9167   -4.3917    0.0000 C   0  0  0  0  0  0  0  0  0  0  0  0
    3.2542   -1.0250    0.0000 O   0  0  0  0  0  0  0  0  0  0  0  0
    1.5042   -2.2417    0.0000 O   0  0  0  0  0  0  0  0  0  0  0  0
    4.9542   -0.4167    0.0000 O   0  0  0  0  0  0  0  0  0  0  0  0
    2.7417   -4.3917    0.0000 O   0  0  0  0  0  0  0  0  0  0  0  0
    0.6792   -3.6750    0.0000 C   0  0  0  0  0  0  0  0  0  0  0  0
    6.3292   -0.8417    0.0000 O   0  0  0  0  0  0  0  0  0  0  0  0
    1.5042   -5.1042    0.0000 O   0  0  0  0  0  0  0  0  0  0  0  0
    6.5000   -2.9292    0.0000 C   0  0  0  0  0  0  0  0  0  0  0  0
    6.6750   -2.1250    0.0000 C   0  0  0  0  0  0  0  0  0  0  0  0
    3.2042   -5.2500    0.0000 Na  0  0  0  0  0 15  0  0  0  0  0  0
    3.7042    0.2208    0.0000 Na  0  0  0  0  0 15  0  0  0  0  0  0
    0.2667   -2.9542    0.0000 C   0  0  0  0  0  0  0  0  0  0  0  0
    0.2667   -4.3792    0.0000 C   0  0  0  0  0  0  0  0  0  0  0  0
   -0.5625   -2.9542    0.0000 C   0  0  0  0  0  0  0  0  0  0  0  0
   -0.5625   -4.3792    0.0000 C   0  0  0  0  0  0  0  0  0  0  0  0
   -0.9750   -3.6750    0.0000 C   0  0  0  0  0  0  0  0  0  0  0  0
  2  1  1  0
  3  1  1  0
  4  3  1  0
  5  1  1  0
  2  6  1  6
  7  5  1  0
  8  9  1  0
  4  9  1  6
 10  8  1  0
  5 11  1  1
 12 10  1  0
 13  3  2  0
 14  8  2  0
 15 11  1  0
 16 12  1  0
 17 10  1  0
 18 11  2  0
 19 12  2  0
 20  7  1  0
 21  7  1  0
 24 17  2  0
 25 17  1  0
 26 24  1  0
 27 25  2  0
 28 27  1  0
  7  6  1  0
  4  2  1  0
 26 28  2  0
M  CHG  4  15  -1  16  -1  22   1  23   1
M  END
>  <ID>  (303) 


>  <MOLENAME>  (303) 
CARBENICILLIN DISODIUM

>  <therap>  (303) 
antibacterial

>  <ref>  (303) 
Arzneim Forsch 19:1222 (1969); Toxicol Appl Pharmacol 18:185 (1971)

>  <cas#>  (303) 
4800-94-6, 4697-36-3 [carbenicillin]

>  <source>  (303) 
semisynthetic; CP-15-639-2, BRL-2064

>  <status>  (303) 
USP, INN, BAN, JAN

>  <tradename>  (303) 
CARBECIN

>  <SMILES>  (303) 
CC1(C)S[C@@H]2[C@H](NC(=O)C(C(=O)O)c3ccccc3)C(=O)N2[C@H]1C(=O)O

>  <standardized_failed>  (303) 
False

$$$$

     RDKit          2D

 28 28  0  0  0  0  0  0  0  0999 V2000
    8.3542   -5.5917    0.0000 C   0  0  0  0  0  0  0  0  0  0  0  0
    8.3542   -4.2167    0.0000 C   0  0  0  0  0  0  0  0  0  0  0  0
    7.7667   -4.5625    0.0000 C   0  0  0  0  0  0  0  0  0  0  0  0
    7.7667   -5.2500    0.0000 C   0  0  0  0  0  0  0  0  0  0  0  0
    6.1292   -3.0375    0.0000 C   0  0  0  0  0  0  0  0  0  0  0  0
    5.2167   -2.1250    0.0000 N   0  0  0  0  0  0  0  0  0  0  0  0
    6.6542   -2.5042    0.0000 C   0  0  0  0  0  0  0  0  0  0  0  0
    5.4167   -2.8500    0.0000 C   0  0  0  0  0  0  0  0  0  0  0  0
    8.9542   -5.2417    0.0000 O   0  0  0  0  0  0  0  0  0  0  0  0
    8.3542   -3.5292    0.0000 O   0  0  0  0  0  0  0  0  0  0  0  0
    7.3792   -2.7000    0.0000 C   0  0  0  0  0  0  0  0  0  0  0  0
    6.4542   -1.7875    0.0000 C   0  0  0  0  0  0  0  0  0  0  0  0
    7.7042   -1.4500    0.0000 C   0  0  0  0  0  0  0  0  0  0  0  0
    5.4792   -5.5375    0.0000 N   0  0  0  0  0  0  0  0  0  0  0  0
    8.9500   -4.5625    0.0000 O   0  0  0  0  0  0  0  0  0  0  0  0
    8.3625   -6.2750    0.0000 O   0  0  0  0  0  0  0  0  0  0  0  0
    6.3292   -3.7500    0.0000 O   0  0  0  0  0  0  0  0  0  0  0  0
    7.9042   -2.1667    0.0000 C   0  0  0  0  0  0  0  0  0  0  0  0
    6.9792   -1.2500    0.0000 C   0  0  0  0  0  0  0  0  0  0  0  0
    8.2542   -0.9375    0.0000 Cl  0  0  0  0  0  0  0  0  0  0  0  0
    5.8042   -4.2875    0.0000 C   0  0  0  0  0  0  0  0  0  0  0  0
    4.4917   -1.9375    0.0000 C   0  0  0  0  0  0  0  0  0  0  0  0
    6.0042   -5.0000    0.0000 C   0  0  0  0  0  0  0  0  0  0  0  0
    4.8917   -3.3792    0.0000 C   0  0  0  0  0  0  0  0  0  0  0  0
    4.7667   -5.3500    0.0000 C   0  0  0  0  0  0  0  0  0  0  0  0
    5.6792   -6.2542    0.0000 C   0  0  0  0  0  0  0  0  0  0  0  0
    3.9667   -2.4625    0.0000 C   0  0  0  0  0  0  0  0  0  0  0  0
    4.1792   -3.1917    0.0000 C   0  0  0  0  0  0  0  0  0  0  0  0
  2  3  1  0
  3  4  2  0
  4  1  1  0
  6  8  2  0
  7  5  1  0
  8  5  1  0
  9  1  2  0
 10  2  2  0
 11  7  2  0
 12  7  1  0
 13 19  1  0
 14 23  1  0
 15  2  1  0
 16  1  1  0
 17  5  1  0
 18 11  1  0
 19 12  2  0
 20 13  1  0
 21 17  1  0
 22  6  1  0
 23 21  1  0
 24  8  1  0
 25 14  1  0
 26 14  1  0
 27 28  1  0
 28 24  2  0
 13 18  2  0
 22 27  2  0
M  END
>  <ID>  (304) 


>  <MOLENAME>  (304) 
CARBINOXAMINE MALEATE

>  <therap>  (304) 
antihistaminic

>  <ref>  (304) 
Ann Pharm Fr 20:463 (1962)

>  <cas#>  (304) 
3505-38-2, 486-16-8 [carbinoxamine]

>  <source>  (304) 
synthetic

>  <status>  (304) 
USP, INN, BAN, JAN

>  <tradename>  (304) 
CLISTIN

>  <SMILES>  (304) 
CN(C)CCOC(c1ccc(Cl)cc1)c1ncccc1

>  <standardized_failed>  (304) 
False

$$$$

     RDKit          2D

 18 17  0  0  0  0  0  0  0  0999 V2000
    4.4167   -3.1625    0.0000 C   0  0  0  0  0  0  0  0  0  0  0  0
    7.8292   -5.6250    0.0000 C   0  0  0  0  0  0  0  0  0  0  0  0
    3.6667   -3.5000    0.0000 N   0  0  0  0  0  0  0  0  0  0  0  0
    6.5125   -3.7917    0.0000 C   0  0  0  0  0  0  0  0  0  0  0  0
    4.5042   -2.3417    0.0000 O   0  0  0  0  0  0  0  0  0  0  0  0
    8.5792   -5.2875    0.0000 O   0  0  0  0  0  0  0  0  0  0  0  0
    5.0875   -3.6417    0.0000 O   0  0  0  0  0  0  0  0  0  0  0  0
    7.1542   -5.1375    0.0000 O   0  0  0  0  0  0  0  0  0  0  0  0
    7.7417   -6.4417    0.0000 N   0  0  0  0  0  0  0  0  0  0  0  0
    5.8417   -3.3042    0.0000 C   0  0  0  0  0  0  0  0  0  0  0  0
    7.1792   -4.2792    0.0000 C   0  0  0  0  0  0  0  0  0  0  0  0
    3.5792   -4.3167    0.0000 C   0  0  0  0  0  0  0  0  0  0  0  0
    5.7917   -4.3417    0.0000 C   0  0  0  0  0  0  0  0  0  0  0  0
    7.0000   -3.1250    0.0000 C   0  0  0  0  0  0  0  0  0  0  0  0
    5.7917   -5.1875    0.0000 C   0  0  0  0  0  0  0  0  0  0  0  0
    4.2500   -4.8042    0.0000 C   0  0  0  0  0  0  0  0  0  0  0  0
    2.8250   -4.6542    0.0000 C   0  0  0  0  0  0  0  0  0  0  0  0
    5.0792   -5.6250    0.0000 C   0  0  0  0  0  0  0  0  0  0  0  0
  2  8  1  0
  3  1  1  0
  4 10  1  0
  5  1  2  0
  6  2  2  0
  7  1  1  0
  8 11  1  0
  9  2  1  0
 10  7  1  0
 11  4  1  0
 12  3  1  0
 13  4  1  0
 14  4  1  0
 15 13  1  0
 16 12  1  0
 17 12  1  0
 18 15  1  0
M  END
>  <ID>  (305) 


>  <MOLENAME>  (305) 
CARISOPRODOL

>  <therap>  (305) 
muscle relaxant (skeletal)

>  <ref>  (305) 
J Pharmacol Exp Therap 127:66 (1959)

>  <cas#>  (305) 
78-44-4

>  <source>  (305) 
synthetic

>  <status>  (305) 
USP, INN, BAN

>  <tradename>  (305) 
SOMA

>  <SMILES>  (305) 
CCCC(C)(COC(N)=O)COC(=O)NC(C)C

>  <standardized_failed>  (305) 
False

$$$$

     RDKit          2D

 25 27  0  0  0  0  0  0  0  0999 V2000
    5.1625   -2.9667    0.0000 N   0  0  0  0  0  0  0  0  0  0  0  0
    4.4125   -2.9667    0.0000 C   0  0  0  0  0  0  0  0  0  0  0  0
    4.4125   -3.7167    0.0000 C   0  0  0  0  0  0  0  0  0  0  0  0
    5.1625   -3.7167    0.0000 C   0  0  0  0  0  0  0  0  0  0  0  0
    5.8042   -2.5917    0.0000 C   0  0  0  0  0  0  0  0  0  0  0  0
    3.8167   -4.2792    0.0000 N   0  0  0  0  0  0  0  0  0  0  0  0
    5.8042   -4.0917    0.0000 S   0  0  0  0  0  0  0  0  0  0  0  0
    3.1667   -4.8792    0.0000 C   0  0  0  0  0  0  0  0  0  0  0  0
    6.4542   -2.9667    0.0000 C   0  0  0  0  0  0  0  0  0  0  0  0
    5.8042   -1.8417    0.0000 C   0  0  0  0  0  0  0  0  0  0  0  0
    2.3417   -4.8792    0.0000 C   0  0  0  0  0  0  0  0  0  0  0  0
    6.4417   -3.7417    0.0000 C   0  0  0  0  0  0  0  0  0  0  0  0
    3.8792   -2.4292    0.0000 O   0  0  0  0  0  0  0  0  0  0  0  0
    3.5792   -5.6000    0.0000 O   0  0  0  0  0  0  0  0  0  0  0  0
    1.9292   -4.1667    0.0000 C   0  0  0  0  0  0  0  0  0  0  0  0
    5.1542   -1.4667    0.0000 O   0  0  0  0  0  0  0  0  0  0  0  0
    2.3500   -3.4500    0.0000 C   0  0  0  0  0  0  0  0  0  0  0  0
    1.1125   -4.1625    0.0000 C   0  0  0  0  0  0  0  0  0  0  0  0
    1.9292   -5.5917    0.0000 N   0  0  0  0  0  0  0  0  0  0  0  0
    6.4542   -1.4667    0.0000 O   0  0  0  0  0  0  0  0  0  0  0  0
    1.1042   -2.7292    0.0000 C   0  0  0  0  0  0  0  0  0  0  0  0
    0.6917   -3.4417    0.0000 C   0  0  0  0  0  0  0  0  0  0  0  0
    1.9375   -2.7292    0.0000 C   0  0  0  0  0  0  0  0  0  0  0  0
    7.1125   -2.5917    0.0000 C   0  0  0  0  0  0  0  0  0  0  0  0
    0.7000   -2.0167    0.0000 O   0  0  0  0  0  0  0  0  0  0  0  0
  2  1  1  0
  3  4  1  0
  4  1  1  0
  5  1  1  0
  3  6  1  6
  4  7  1  6
  8  6  1  0
  9  5  2  0
 10  5  1  0
 11  8  1  0
 12  9  1  0
 13  2  2  0
 14  8  2  0
 15 11  1  0
 16 10  2  0
 17 15  2  0
 18 15  1  0
 11 19  1  0
 20 10  1  0
 21 22  1  0
 22 18  2  0
 23 17  1  0
 24  9  1  0
 25 21  1  0
  3  2  1  0
 12  7  1  0
 21 23  2  0
M  END
>  <ID>  (306) 


>  <MOLENAME>  (306) 
CEFADROXIL

>  <therap>  (306) 
antibacterial

>  <ref>  (306) 
J Antimicrob Chemother 10:Suppl B:1 (1982); Drugs 32 Suppl 3:1 (1986)

>  <cas#>  (306) 
66592-87-8, 50370-12-2 [anhydrous], 119922-89-9 [hemihydrate]

>  <source>  (306) 
semisynthetic

>  <status>  (306) 
USP, INN, BAN, JAN

>  <tradename>  (306) 
DURICEF

>  <SMILES>  (306) 
CC1=C(C(=O)O)N2C(=O)[C@@H](NC(=O)C(N)c3ccc(O)cc3)[C@H]2SC1

>  <standardized_failed>  (306) 
False

$$$$

     RDKit          2D

 31 32  0  0  0  0  0  0  0  0999 V2000
    4.4500   -1.8625    0.0000 N   0  0  0  0  0  0  0  0  0  0  0  0
    3.6875   -1.8625    0.0000 C   0  0  0  0  0  0  0  0  0  0  0  0
    3.6875   -2.6250    0.0000 C   0  0  0  0  0  0  0  0  0  0  0  0
    4.4917   -2.6292    0.0000 C   0  0  0  0  0  0  0  0  0  0  0  0
    5.1042   -1.4792    0.0000 C   0  0  0  0  0  0  0  0  0  0  0  0
    0.7000   -2.6917    0.0000 C   0  0  0  0  0  0  0  0  0  0  0  0
    1.3750   -2.6917    0.0000 C   0  0  0  0  0  0  0  0  0  0  0  0
   -0.5958   -2.6917    0.0000 N   0  0  0  0  0  0  0  0  0  0  0  0
    2.8667   -2.7250    0.0000 N   0  0  0  0  0  0  0  0  0  0  0  0
    2.1167   -2.7167    0.0000 C   0  0  0  0  0  0  0  0  0  0  0  0
    5.1042   -3.0042    0.0000 S   0  0  0  0  0  0  0  0  0  0  0  0
    5.7667   -1.8625    0.0000 C   0  0  0  0  0  0  0  0  0  0  0  0
   -0.5958   -3.4417    0.0000 C   0  0  0  0  0  0  0  0  0  0  0  0
    5.1042   -0.7292    0.0000 C   0  0  0  0  0  0  0  0  0  0  0  0
    0.7000   -3.4417    0.0000 C   0  0  0  0  0  0  0  0  0  0  0  0
    0.0500   -3.8167    0.0000 S   0  0  0  0  0  0  0  0  0  0  0  0
    5.7667   -2.6250    0.0000 C   0  0  0  0  0  0  0  0  0  0  0  0
    1.3667   -1.8167    0.0000 N   0  0  0  0  0  0  0  0  0  0  0  0
    3.1542   -1.3292    0.0000 O   0  0  0  0  0  0  0  0  0  0  0  0
    6.4167   -1.4875    0.0000 C   0  0  0  0  0  0  0  0  0  0  0  0
    7.7167   -1.4875    0.0000 C   0  0  0  0  0  0  0  0  0  0  0  0
    2.1167   -3.4750    0.0000 O   0  0  0  0  0  0  0  0  0  0  0  0
    5.7542   -0.3542    0.0000 O   0  0  0  0  0  0  0  0  0  0  0  0
    4.4542   -0.3542    0.0000 O   0  0  0  0  0  0  0  0  0  0  0  0
    7.2375   -2.1375    0.0000 O   0  0  0  0  0  0  0  0  0  0  0  0
    8.3667   -1.8625    0.0000 O   0  0  0  0  0  0  0  0  0  0  0  0
   -1.2458   -3.8167    0.0000 N   0  0  0  0  0  0  0  0  0  0  0  0
    0.7167   -1.4417    0.0000 O   0  0  0  0  0  0  0  0  0  0  0  0
    6.5792   -0.3042    0.0000 Na  0  0  0  0  0 15  0  0  0  0  0  0
    7.7167   -0.7375    0.0000 C   0  0  0  0  0  0  0  0  0  0  0  0
    0.7250   -0.6917    0.0000 C   0  0  0  0  0  0  0  0  0  0  0  0
  2  1  1  0
  3  4  1  0
  4  1  1  0
  5  1  1  0
  6  7  1  0
  7 10  1  0
  8  6  1  0
  3  9  1  6
 10  9  1  0
  4 11  1  6
 12  5  2  0
 13  8  2  0
 14  5  1  0
 15  6  2  0
 16 15  1  0
 17 12  1  0
 18  7  2  0
 19  2  2  0
 20 12  1  0
 21 25  1  0
 22 10  2  0
 23 14  1  0
 24 14  2  0
 25 20  1  0
 26 21  2  0
 27 13  1  0
 28 18  1  0
 30 21  1  0
 31 28  1  0
  3  2  1  0
 17 11  1  0
 16 13  1  0
M  CHG  2  23  -1  29   1
M  END
>  <ID>  (307) 


>  <MOLENAME>  (307) 
CEFOTAXIME SODIUM

>  <therap>  (307) 
antibacterial

>  <ref>  (307) 
Antimicrob Agents Chemother 14:807 (1978); 16:109, 127 (1979)

>  <cas#>  (307) 
64485-93-4, 63527-52-6 [cefotaxime]

>  <source>  (307) 
semisynthetic

>  <status>  (307) 
USP, INN, BAN, JAN

>  <tradename>  (307) 
CLAFORAN

>  <SMILES>  (307) 
CO/N=C(/C(=O)N[C@@H]1C(=O)N2C(C(=O)O)=C(COC(C)=O)CS[C@H]12)c1csc(N)n1

>  <standardized_failed>  (307) 
False

$$$$

     RDKit          2D

 27 28  0  0  0  0  0  0  0  0999 V2000
    6.6000   -3.6750    0.0000 N   0  0  0  0  0  0  0  0  0  0  0  0
    5.7750   -3.6750    0.0000 C   0  0  0  0  0  0  0  0  0  0  0  0
    6.6000   -4.5000    0.0000 C   0  0  0  0  0  0  0  0  0  0  0  0
    5.7750   -4.5000    0.0000 C   0  0  0  0  0  0  0  0  0  0  0  0
    7.3125   -3.2625    0.0000 C   0  0  0  0  0  0  0  0  0  0  0  0
    7.3125   -4.9125    0.0000 S   0  0  0  0  0  0  0  0  0  0  0  0
    8.0292   -3.6750    0.0000 C   0  0  0  0  0  0  0  0  0  0  0  0
    5.1917   -5.0792    0.0000 N   0  0  0  0  0  0  0  0  0  0  0  0
    7.3125   -2.4375    0.0000 C   0  0  0  0  0  0  0  0  0  0  0  0
    4.4167   -5.2917    0.0000 C   0  0  0  0  0  0  0  0  0  0  0  0
    4.3292   -6.1167    0.0000 C   0  0  0  0  0  0  0  0  0  0  0  0
    5.0042   -6.6042    0.0000 C   0  0  0  0  0  0  0  0  0  0  0  0
    8.0292   -4.5000    0.0000 C   0  0  0  0  0  0  0  0  0  0  0  0
    5.1917   -3.0917    0.0000 O   0  0  0  0  0  0  0  0  0  0  0  0
    5.7875   -6.3500    0.0000 S   0  0  0  0  0  0  0  0  0  0  0  0
    8.7500   -3.2625    0.0000 C   0  0  0  0  0  0  0  0  0  0  0  0
    9.4667   -2.0250    0.0000 C   0  0  0  0  0  0  0  0  0  0  0  0
    8.0250   -2.0250    0.0000 O   0  0  0  0  0  0  0  0  0  0  0  0
    6.2667   -7.0167    0.0000 C   0  0  0  0  0  0  0  0  0  0  0  0
    6.5917   -2.0250    0.0000 O   0  0  0  0  0  0  0  0  0  0  0  0
    5.0042   -7.4292    0.0000 C   0  0  0  0  0  0  0  0  0  0  0  0
    3.7500   -4.8042    0.0000 O   0  0  0  0  0  0  0  0  0  0  0  0
    8.7542   -2.4375    0.0000 O   0  0  0  0  0  0  0  0  0  0  0  0
    5.7875   -7.6792    0.0000 C   0  0  0  0  0  0  0  0  0  0  0  0
    9.4667   -1.1917    0.0000 O   0  0  0  0  0  0  0  0  0  0  0  0
    6.8250   -0.8750    0.0000 Na  0  0  0  0  0 15  0  0  0  0  0  0
   10.1792   -2.4375    0.0000 C   0  0  0  0  0  0  0  0  0  0  0  0
  2  1  1  0
  3  1  1  0
  4  3  1  0
  5  1  1  0
  3  6  1  6
  7  5  2  0
  4  8  1  6
  9  5  1  0
 10  8  1  0
 11 10  1  0
 12 11  1  0
 13  7  1  0
 14  2  2  0
 15 12  1  0
 16  7  1  0
 17 23  1  0
 18  9  1  0
 19 15  1  0
 20  9  2  0
 21 12  2  0
 22 10  2  0
 23 16  1  0
 24 21  1  0
 25 17  2  0
 27 17  1  0
  4  2  1  0
 13  6  1  0
 24 19  2  0
M  CHG  2  18  -1  26   1
M  END
>  <ID>  (308) 


>  <MOLENAME>  (308) 
CEPHALOTHIN SODIUM

>  <therap>  (308) 
antibacterial

>  <ref>  (308) 
Antimicrob Agents Chemother 1962:695, 706; Arzneim Forsch 16:1099 (1966); Jpn J Antibiot 27:746 (1974)

>  <cas#>  (308) 
58-71-9, 153-61-7 [cephalothin]

>  <source>  (308) 
semisynthetic

>  <status>  (308) 
USP, INN, BAN, JAN

>  <tradename>  (308) 
KEFLIN

>  <SMILES>  (308) 
CC(=O)OCC1=C(C(=O)O)N2C(=O)[C@@H](NC(=O)Cc3cccs3)[C@H]2SC1

>  <standardized_failed>  (308) 
False

$$$$

     RDKit          2D

 29 30  0  0  0  0  0  0  0  0999 V2000
    4.0792   -2.1375    0.0000 N   0  0  0  0  0  0  0  0  0  0  0  0
    3.3292   -2.1375    0.0000 C   0  0  0  0  0  0  0  0  0  0  0  0
    4.0792   -2.8875    0.0000 C   0  0  0  0  0  0  0  0  0  0  0  0
    3.3292   -2.8875    0.0000 C   0  0  0  0  0  0  0  0  0  0  0  0
    4.7292   -1.7625    0.0000 C   0  0  0  0  0  0  0  0  0  0  0  0
    4.7292   -3.2625    0.0000 S   0  0  0  0  0  0  0  0  0  0  0  0
    5.3792   -2.1375    0.0000 C   0  0  0  0  0  0  0  0  0  0  0  0
    2.3542   -2.9125    0.0000 N   0  0  0  0  0  0  0  0  0  0  0  0
    4.7292   -1.0125    0.0000 C   0  0  0  0  0  0  0  0  0  0  0  0
    5.3792   -2.8875    0.0000 C   0  0  0  0  0  0  0  0  0  0  0  0
    1.9792   -2.2667    0.0000 C   0  0  0  0  0  0  0  0  0  0  0  0
    3.0417   -1.6375    0.0000 O   0  0  0  0  0  0  0  0  0  0  0  0
    6.0292   -1.7625    0.0000 C   0  0  0  0  0  0  0  0  0  0  0  0
    7.3292   -1.7625    0.0000 C   0  0  0  0  0  0  0  0  0  0  0  0
    5.3792   -0.6375    0.0000 O   0  0  0  0  0  0  0  0  0  0  0  0
    4.0792   -0.6375    0.0000 O   0  0  0  0  0  0  0  0  0  0  0  0
   -1.3958   -2.9125    0.0000 N   0  0  0  0  0  0  0  0  0  0  0  0
    6.7542   -2.3542    0.0000 O   0  0  0  0  0  0  0  0  0  0  0  0
    0.8542   -2.9125    0.0000 S   0  0  0  0  0  0  0  0  0  0  0  0
    2.3542   -1.6167    0.0000 O   0  0  0  0  0  0  0  0  0  0  0  0
    7.9792   -2.1375    0.0000 O   0  0  0  0  0  0  0  0  0  0  0  0
    1.2292   -2.2667    0.0000 C   0  0  0  0  0  0  0  0  0  0  0  0
    0.1042   -2.9125    0.0000 C   0  0  0  0  0  0  0  0  0  0  0  0
   -0.2708   -2.2667    0.0000 C   0  0  0  0  0  0  0  0  0  0  0  0
   -0.2708   -3.5625    0.0000 C   0  0  0  0  0  0  0  0  0  0  0  0
    6.2667   -0.6500    0.0000 Na  0  0  0  0  0 15  0  0  0  0  0  0
   -1.0208   -3.5625    0.0000 C   0  0  0  0  0  0  0  0  0  0  0  0
   -1.0208   -2.2667    0.0000 C   0  0  0  0  0  0  0  0  0  0  0  0
    7.3292   -1.0125    0.0000 C   0  0  0  0  0  0  0  0  0  0  0  0
  2  1  1  0
  3  1  1  0
  4  3  1  0
  5  1  1  0
  3  6  1  6
  7  5  2  0
  4  8  1  6
  9  5  1  0
 10  7  1  0
 11  8  1  0
 12  2  2  0
 13  7  1  0
 14 18  1  0
 15  9  1  0
 16  9  2  0
 17 27  2  0
 18 13  1  0
 19 22  1  0
 20 11  2  0
 21 14  2  0
 22 11  1  0
 23 19  1  0
 24 23  1  0
 25 23  2  0
 27 25  1  0
 28 24  2  0
 29 14  1  0
  4  2  1  0
 10  6  1  0
 17 28  1  0
M  CHG  2  15  -1  26   1
M  END
>  <ID>  (309) 


>  <MOLENAME>  (309) 
CEPHAPIRIN SODIUM

>  <therap>  (309) 
antibacterial

>  <ref>  (309) 
Antimicrob Agents Chemother 1969:244; 1:35, 303 (1972)

>  <cas#>  (309) 
24356-60-3, 21593-23-7 [cephapirin]

>  <source>  (309) 
semisynthetic

>  <status>  (309) 
USP, INN, BAN, JAN

>  <tradename>  (309) 
CEFADYL

>  <SMILES>  (309) 
CC(=O)OCC1=C(C(=O)O)N2C(=O)[C@@H](NC(=O)CSc3ccncc3)[C@H]2SC1

>  <standardized_failed>  (309) 
False

$$$$

     RDKit          2D

 24 26  0  0  0  0  0  0  0  0999 V2000
    3.6667   -2.0792    0.0000 N   0  0  0  0  0  0  0  0  0  0  0  0
    2.8417   -2.0792    0.0000 C   0  0  0  0  0  0  0  0  0  0  0  0
    2.8417   -2.9042    0.0000 C   0  0  0  0  0  0  0  0  0  0  0  0
    3.6667   -2.9042    0.0000 C   0  0  0  0  0  0  0  0  0  0  0  0
    4.3792   -1.6667    0.0000 C   0  0  0  0  0  0  0  0  0  0  0  0
    2.2542   -3.4792    0.0000 N   0  0  0  0  0  0  0  0  0  0  0  0
    4.3792   -3.3167    0.0000 S   0  0  0  0  0  0  0  0  0  0  0  0
    1.5375   -3.0792    0.0000 C   0  0  0  0  0  0  0  0  0  0  0  0
    5.0917   -2.0792    0.0000 C   0  0  0  0  0  0  0  0  0  0  0  0
    4.3792   -0.8417    0.0000 C   0  0  0  0  0  0  0  0  0  0  0  0
    0.8417   -3.5000    0.0000 C   0  0  0  0  0  0  0  0  0  0  0  0
    0.1167   -3.1042    0.0000 C   0  0  0  0  0  0  0  0  0  0  0  0
    5.0917   -2.9042    0.0000 C   0  0  0  0  0  0  0  0  0  0  0  0
    2.2542   -1.5000    0.0000 O   0  0  0  0  0  0  0  0  0  0  0  0
    1.5250   -2.2542    0.0000 O   0  0  0  0  0  0  0  0  0  0  0  0
    3.6625   -0.4292    0.0000 O   0  0  0  0  0  0  0  0  0  0  0  0
   -0.5833   -3.5250    0.0000 C   0  0  0  0  0  0  0  0  0  0  0  0
   -0.6083   -1.8875    0.0000 C   0  0  0  0  0  0  0  0  0  0  0  0
   -1.3208   -2.3125    0.0000 C   0  0  0  0  0  0  0  0  0  0  0  0
    0.8542   -4.3167    0.0000 N   0  0  0  0  0  0  0  0  0  0  0  0
    5.0917   -0.4250    0.0000 O   0  0  0  0  0  0  0  0  0  0  0  0
    0.1042   -2.2792    0.0000 C   0  0  0  0  0  0  0  0  0  0  0  0
    5.8167   -1.6667    0.0000 C   0  0  0  0  0  0  0  0  0  0  0  0
   -1.3000   -3.1250    0.0000 C   0  0  0  0  0  0  0  0  0  0  0  0
  2  1  1  0
  3  4  1  0
  4  1  1  0
  5  1  1  0
  3  6  1  6
  7  4  1  0
  8  6  1  0
  9  5  2  0
 10  5  1  0
 11  8  1  0
 12 11  1  0
 13  9  1  0
 14  2  2  0
 15  8  2  0
 16 10  2  0
 17 12  2  0
 18 22  1  0
 19 18  2  0
 11 20  1  6
 21 10  1  0
 22 12  1  0
 23  9  1  0
 24 17  1  0
  3  2  1  0
 13  7  1  0
 24 19  1  0
M  END
>  <ID>  (310) 


>  <MOLENAME>  (310) 
CEPHRADINE

>  <therap>  (310) 
antibacterial

>  <ref>  (310) 
Curr Ther Res 14:101, 496 (1972)

>  <cas#>  (310) 
38821-53-3 [anhydrous], 58456-86-3 [dihydrate], 31828-50-9 [non-stoichiometric hydrate]

>  <source>  (310) 
semisynthetic

>  <status>  (310) 
USP, INN, BAN, JAN

>  <tradename>  (310) 
ANSPOR

>  <SMILES>  (310) 
CC1=C(C(=O)O)N2C(=O)[C@@H](NC(=O)[C@H](N)C3=CCC=CC3)C2SC1

>  <standardized_failed>  (310) 
False

$$$$

     RDKit          2D

 23 22  0  0  0  0  0  0  0  0999 V2000
   -3.4708   -6.4625    0.0000 N   0  0  0  0  0  0  0  0  0  0  0  0
   -1.1333   -6.7042    0.0000 Cl  0  0  0  0  0  0  0  0  0  0  0  0
   -3.4708   -5.7125    0.0000 C   0  0  0  0  0  0  0  0  0  0  0  0
   -2.8125   -6.8417    0.0000 C   0  0  0  0  0  0  0  0  0  0  0  0
   -4.1125   -6.8417    0.0000 C   0  0  0  0  0  0  0  0  0  0  0  0
   -2.8208   -5.3292    0.0000 C   0  0  0  0  0  0  0  0  0  0  0  0
    1.0667    2.1708    0.0000 C   0  0  0  0  0  0  0  0  0  0  0  0
   -4.1125   -7.5917    0.0000 C   0  0  0  0  0  0  0  0  0  0  0  0
   -2.8125   -7.5917    0.0000 C   0  0  0  0  0  0  0  0  0  0  0  0
    1.0667    1.4208    0.0000 C   0  0  0  0  0  0  0  0  0  0  0  0
   -0.2250   -0.0792    0.0000 C   0  0  0  0  0  0  0  0  0  0  0  0
    0.4167    0.2958    0.0000 C   0  0  0  0  0  0  0  0  0  0  0  0
    0.4167    1.0458    0.0000 C   0  0  0  0  0  0  0  0  0  0  0  0
   -2.8208   -4.5792    0.0000 C   0  0  0  0  0  0  0  0  0  0  0  0
   -2.1708   -4.2042    0.0000 C   0  0  0  0  0  0  0  0  0  0  0  0
   -2.1708   -3.4542    0.0000 C   0  0  0  0  0  0  0  0  0  0  0  0
   -1.5208   -3.0792    0.0000 C   0  0  0  0  0  0  0  0  0  0  0  0
   -1.5208   -2.3292    0.0000 C   0  0  0  0  0  0  0  0  0  0  0  0
   -0.8750   -1.9542    0.0000 C   0  0  0  0  0  0  0  0  0  0  0  0
   -0.8750   -1.2042    0.0000 C   0  0  0  0  0  0  0  0  0  0  0  0
   -0.2250   -0.8292    0.0000 C   0  0  0  0  0  0  0  0  0  0  0  0
    1.7167    2.5458    0.0000 C   0  0  0  0  0  0  0  0  0  0  0  0
   -3.4708   -7.9667    0.0000 C   0  0  0  0  0  0  0  0  0  0  0  0
  3  1  1  0
  4  1  2  0
  5  1  1  0
  6  3  1  0
  7 10  1  0
  8  5  2  0
  9  4  1  0
 10 13  1  0
 11 21  1  0
 12 11  1  0
 13 12  1  0
 14  6  1  0
 15 14  1  0
 16 15  1  0
 17 16  1  0
 18 17  1  0
 19 18  1  0
 20 19  1  0
 21 20  1  0
 22  7  1  0
 23  9  2  0
  8 23  1  0
M  CHG  2   1   1   2  -1
M  END
>  <ID>  (311) 


>  <MOLENAME>  (311) 
CETYLPYRIDINIUM CHLORIDE

>  <therap>  (311) 
antiinfective (topical)

>  <ref>  (311) 
J Pharmacol Exper Ther 74:401 (1944); J Am Pharm Assoc 35:89 (1946)

>  <cas#>  (311) 
6004-24-6, 123-03-5 [anhydrous]

>  <source>  (311) 
synthetic

>  <status>  (311) 
USP, INN, BAN, JAN

>  <tradename>  (311) 
CEPACOL

>  <SMILES>  (311) 
CCCCCCCCCCCCCCCC[n+]1ccccc1

>  <standardized_failed>  (311) 
False

$$$$

     RDKit          2D

 19 19  0  0  0  0  0  0  0  0999 V2000
    4.4292    0.8875    0.0000 C   0  0  0  0  0  0  0  0  0  0  0  0
    3.1292   -2.8750    0.0000 C   0  0  0  0  0  0  0  0  0  0  0  0
    3.1292   -3.6250    0.0000 N   0  0  0  0  0  0  0  0  0  0  0  0
    4.4292    1.6375    0.0000 O   0  0  0  0  0  0  0  0  0  0  0  0
    3.7875   -2.5000    0.0000 C   0  0  0  0  0  0  0  0  0  0  0  0
    2.4875   -2.5000    0.0000 C   0  0  0  0  0  0  0  0  0  0  0  0
    5.0792    0.5125    0.0000 O   0  0  0  0  0  0  0  0  0  0  0  0
    2.4875   -1.7417    0.0000 C   0  0  0  0  0  0  0  0  0  0  0  0
    3.7875   -1.7417    0.0000 C   0  0  0  0  0  0  0  0  0  0  0  0
    3.1292   -1.3667    0.0000 C   0  0  0  0  0  0  0  0  0  0  0  0
    1.8292   -5.1167    0.0000 Cl  0  0  0  0  0  0  0  0  0  0  0  0
    4.4292   -5.1250    0.0000 Cl  0  0  0  0  0  0  0  0  0  0  0  0
    3.7792    0.5125    0.0000 C   0  0  0  0  0  0  0  0  0  0  0  0
    3.7792   -0.2375    0.0000 C   0  0  0  0  0  0  0  0  0  0  0  0
    3.7792   -4.0000    0.0000 C   0  0  0  0  0  0  0  0  0  0  0  0
    2.4792   -3.9917    0.0000 C   0  0  0  0  0  0  0  0  0  0  0  0
    3.1292   -0.6167    0.0000 C   0  0  0  0  0  0  0  0  0  0  0  0
    3.7792   -4.7500    0.0000 C   0  0  0  0  0  0  0  0  0  0  0  0
    2.4792   -4.7417    0.0000 C   0  0  0  0  0  0  0  0  0  0  0  0
  2  5  2  0
  3  2  1  0
  4  1  2  0
  5  9  1  0
  6  8  2  0
  7  1  1  0
  8 10  1  0
  9 10  2  0
 10 17  1  0
 11 19  1  0
 12 18  1  0
 13  1  1  0
 14 13  1  0
 15  3  1  0
 16  3  1  0
 17 14  1  0
 18 15  1  0
 19 16  1  0
  2  6  1  0
M  END
>  <ID>  (312) 


>  <MOLENAME>  (312) 
CHLORAMBUCIL

>  <therap>  (312) 
antineoplastic, alkylating agent

>  <ref>  (312) 
Biochem Pharmacol 13:969 (1964); Eur J Cancer 7:11 (1971)

>  <cas#>  (312) 
305-03-3

>  <source>  (312) 
synthetic

>  <status>  (312) 
USP, INN, BAN

>  <tradename>  (312) 
LEUKERAN

>  <SMILES>  (312) 
O=C(O)CCCc1ccc(N(CCCl)CCCl)cc1

>  <standardized_failed>  (312) 
False

$$$$

     RDKit          2D

 37 37  0  0  0  0  0  0  0  0999 V2000
    1.7292   -5.2292    0.0000 N   0  0  0  0  0  0  0  0  0  0  0  0
    5.4417   -3.0917    0.0000 C   0  0  0  0  0  0  0  0  0  0  0  0
    5.0292   -3.8042    0.0000 N   0  0  0  0  0  0  0  0  0  0  0  0
    5.4417   -4.5167    0.0000 C   0  0  0  0  0  0  0  0  0  0  0  0
    2.5542   -5.2292    0.0000 C   0  0  0  0  0  0  0  0  0  0  0  0
    6.2792   -3.0917    0.0000 C   0  0  0  0  0  0  0  0  0  0  0  0
    5.0292   -5.2292    0.0000 C   0  0  0  0  0  0  0  0  0  0  0  0
    1.3167   -4.5167    0.0000 O   0  0  0  0  0  0  0  0  0  0  0  0
    1.3167   -5.9542    0.0000 O   0  0  0  0  0  0  0  0  0  0  0  0
    7.4042   -5.6417    0.0000 C   0  0  0  0  0  0  0  0  0  0  0  0
    4.2042   -5.2292    0.0000 C   0  0  0  0  0  0  0  0  0  0  0  0
    5.0292   -2.3792    0.0000 O   0  0  0  0  0  0  0  0  0  0  0  0
    6.2792   -4.5167    0.0000 C   0  0  0  0  0  0  0  0  0  0  0  0
    6.6917   -5.2292    0.0000 O   0  0  0  0  0  0  0  0  0  0  0  0
    7.4042   -6.4667    0.0000 O   0  0  0  0  0  0  0  0  0  0  0  0
    2.9667   -5.9417    0.0000 C   0  0  0  0  0  0  0  0  0  0  0  0
    2.9667   -4.5167    0.0000 C   0  0  0  0  0  0  0  0  0  0  0  0
    3.7917   -5.9417    0.0000 C   0  0  0  0  0  0  0  0  0  0  0  0
    3.7917   -4.5167    0.0000 C   0  0  0  0  0  0  0  0  0  0  0  0
    6.6917   -3.8042    0.0000 Cl  0  0  0  0  0  0  0  0  0  0  0  0
    6.6917   -2.3667    0.0000 Cl  0  0  0  0  0  0  0  0  0  0  0  0
    5.4417   -5.9417    0.0000 O   0  0  0  0  0  0  0  0  0  0  0  0
    8.1167   -5.2292    0.0000 C   0  0  0  0  0  0  0  0  0  0  0  0
    8.8292   -5.6375    0.0000 C   0  0  0  0  0  0  0  0  0  0  0  0
   14.5292   -8.0792    0.0000 C   0  0  0  0  0  0  0  0  0  0  0  0
   15.2417   -7.6750    0.0000 C   0  0  0  0  0  0  0  0  0  0  0  0
   11.6792   -5.6292    0.0000 C   0  0  0  0  0  0  0  0  0  0  0  0
   12.3917   -5.2167    0.0000 C   0  0  0  0  0  0  0  0  0  0  0  0
   13.1042   -5.6250    0.0000 C   0  0  0  0  0  0  0  0  0  0  0  0
   13.8167   -5.2125    0.0000 C   0  0  0  0  0  0  0  0  0  0  0  0
   14.5292   -5.6167    0.0000 C   0  0  0  0  0  0  0  0  0  0  0  0
   14.5292   -6.4417    0.0000 C   0  0  0  0  0  0  0  0  0  0  0  0
   15.2417   -6.8542    0.0000 C   0  0  0  0  0  0  0  0  0  0  0  0
    9.5417   -5.2250    0.0000 C   0  0  0  0  0  0  0  0  0  0  0  0
   10.2542   -5.6292    0.0000 C   0  0  0  0  0  0  0  0  0  0  0  0
   10.9667   -5.2167    0.0000 C   0  0  0  0  0  0  0  0  0  0  0  0
   13.8167   -7.6667    0.0000 C   0  0  0  0  0  0  0  0  0  0  0  0
  2  3  1  0
  4  3  1  0
  4  7  1  0
  5  1  1  0
  6  2  1  0
  7 11  1  0
  8  1  1  0
  9  1  2  0
 10 14  1  0
 11 19  1  0
 12  2  2  0
  4 13  1  1
 14 13  1  0
 15 10  2  0
 16  5  2  0
 17  5  1  0
 18 16  1  0
 19 17  2  0
 20  6  1  0
 21  6  1  0
  7 22  1  6
 23 10  1  0
 24 23  1  0
 25 26  1  0
 26 33  1  0
 27 36  1  0
 28 27  1  0
 29 28  1  0
 30 29  1  0
 31 30  1  0
 32 31  1  0
 33 32  1  0
 34 24  1  0
 35 34  1  0
 36 35  1  0
 37 25  1  0
 18 11  2  0
M  CHG  2   1   1   8  -1
M  END
>  <ID>  (313) 


>  <MOLENAME>  (313) 
CHLORAMPHENICOL PALMITATE

>  <therap>  (313) 
antibacterial, antirickettsial

>  <ref>  (313) 
Antibiot Chemother 2:234 (1952); 7:374 (1957)

>  <cas#>  (313) 
530-43-8

>  <source>  (313) 
semisynthetic

>  <status>  (313) 
USP, BAN, JAN

>  <tradename>  (313) 
CHLOROPAL

>  <SMILES>  (313) 
CCCCCCCCCCCCCCCC(=O)OC[C@H](NC(=O)C(Cl)Cl)[C@H](O)c1ccc([N+](=O)[O-])cc1

>  <standardized_failed>  (313) 
False

$$$$

     RDKit          2D

 28 27  0  0  0  0  0  0  0  0999 V2000
    4.7167   -3.8625    0.0000 N   0  0  0  0  0  0  0  0  0  0  0  0
    5.8500   -0.7625    0.0000 C   0  0  0  0  0  0  0  0  0  0  0  0
    5.4750   -0.1167    0.0000 N   0  0  0  0  0  0  0  0  0  0  0  0
    4.7250   -0.1167    0.0000 C   0  0  0  0  0  0  0  0  0  0  0  0
    4.7250   -3.1167    0.0000 C   0  0  0  0  0  0  0  0  0  0  0  0
    6.6000   -0.7625    0.0000 C   0  0  0  0  0  0  0  0  0  0  0  0
    4.7250   -0.8667    0.0000 C   0  0  0  0  0  0  0  0  0  0  0  0
    4.0750   -4.2292    0.0000 O   0  0  0  0  0  0  0  0  0  0  0  0
    7.3250    2.1333    0.0000 C   0  0  0  0  0  0  0  0  0  0  0  0
    5.3750    1.7583    0.0000 C   0  0  0  0  0  0  0  0  0  0  0  0
    5.3625   -4.2375    0.0000 O   0  0  0  0  0  0  0  0  0  0  0  0
    4.7250   -1.6167    0.0000 C   0  0  0  0  0  0  0  0  0  0  0  0
    5.4750   -1.4125    0.0000 O   0  0  0  0  0  0  0  0  0  0  0  0
    4.7250    0.6333    0.0000 C   0  0  0  0  0  0  0  0  0  0  0  0
    7.9667    1.7583    0.0000 O   0  0  0  0  0  0  0  0  0  0  0  0
    5.3750    1.0083    0.0000 O   0  0  0  0  0  0  0  0  0  0  0  0
    7.3250    2.8833    0.0000 O   0  0  0  0  0  0  0  0  0  0  0  0
    4.7250    2.1333    0.0000 O   0  0  0  0  0  0  0  0  0  0  0  0
    4.0792   -2.7417    0.0000 C   0  0  0  0  0  0  0  0  0  0  0  0
    5.3750   -2.7417    0.0000 C   0  0  0  0  0  0  0  0  0  0  0  0
    4.0792   -1.9917    0.0000 C   0  0  0  0  0  0  0  0  0  0  0  0
    5.3750   -1.9917    0.0000 C   0  0  0  0  0  0  0  0  0  0  0  0
    6.6750    1.7583    0.0000 C   0  0  0  0  0  0  0  0  0  0  0  0
    6.0250    2.1333    0.0000 C   0  0  0  0  0  0  0  0  0  0  0  0
    6.9750   -1.4125    0.0000 Cl  0  0  0  0  0  0  0  0  0  0  0  0
    6.9750   -0.1125    0.0000 Cl  0  0  0  0  0  0  0  0  0  0  0  0
    3.9750   -0.8667    0.0000 O   0  0  0  0  0  0  0  0  0  0  0  0
    9.1042    1.6583    0.0000 Na  0  0  0  0  0 15  0  0  0  0  0  0
  2  3  1  0
  4  3  1  0
  4  7  1  0
  5  1  1  0
  6  2  1  0
  7 12  1  0
  8  1  1  0
  9 23  1  0
 10 16  1  0
 11  1  2  0
 12 21  2  0
 13  2  2  0
  4 14  1  1
 15  9  1  0
 16 14  1  0
 17  9  2  0
 18 10  2  0
 19  5  2  0
 20  5  1  0
 21 19  1  0
 22 20  2  0
 23 24  1  0
 24 10  1  0
 25  6  1  0
 26  6  1  0
  7 27  1  6
 22 12  1  0
M  CHG  4   1   1   8  -1  15  -1  28   1
M  END
>  <ID>  (314) 


>  <MOLENAME>  (314) 
CHLORAMPHENICOL SODIUM SUCCINATE

>  <therap>  (314) 
antibacterial, antirickettsial, inhibits protein synthesis

>  <ref>  (314) 
Drugs 28:281 (1984); Anal Profiles Drug Subs 4:47 (1975)

>  <cas#>  (314) 
982-57-0, 56-75-7 [chloramphenicol]

>  <source>  (314) 
semisynthetic

>  <status>  (314) 
USP, BAN, JAN

>  <tradename>  (314) 
GLOBENICOL

>  <SMILES>  (314) 
O=C(O)CCC(=O)OC[C@@H](NC(=O)C(Cl)Cl)[C@H](O)c1ccc([N+](=O)[O-])cc1

>  <standardized_failed>  (314) 
False

$$$$

     RDKit          2D

 20 20  0  0  0  0  0  0  0  0999 V2000
    2.2417   -3.1417    0.0000 N   0  0  0  0  0  0  0  0  0  0  0  0
    5.9542   -1.0000    0.0000 C   0  0  0  0  0  0  0  0  0  0  0  0
    5.5417   -1.7167    0.0000 N   0  0  0  0  0  0  0  0  0  0  0  0
    5.9542   -2.4292    0.0000 C   0  0  0  0  0  0  0  0  0  0  0  0
    3.0667   -3.1417    0.0000 C   0  0  0  0  0  0  0  0  0  0  0  0
    6.7875   -1.0000    0.0000 C   0  0  0  0  0  0  0  0  0  0  0  0
    1.8292   -2.4292    0.0000 O   0  0  0  0  0  0  0  0  0  0  0  0
    5.5417   -3.1417    0.0000 C   0  0  0  0  0  0  0  0  0  0  0  0
    1.8292   -3.8625    0.0000 O   0  0  0  0  0  0  0  0  0  0  0  0
    4.7167   -3.1417    0.0000 C   0  0  0  0  0  0  0  0  0  0  0  0
    5.5417   -0.2875    0.0000 O   0  0  0  0  0  0  0  0  0  0  0  0
    3.4792   -3.8542    0.0000 C   0  0  0  0  0  0  0  0  0  0  0  0
    3.4792   -2.4292    0.0000 C   0  0  0  0  0  0  0  0  0  0  0  0
    4.3042   -3.8542    0.0000 C   0  0  0  0  0  0  0  0  0  0  0  0
    4.3042   -2.4292    0.0000 C   0  0  0  0  0  0  0  0  0  0  0  0
    7.2000   -1.7125    0.0000 Cl  0  0  0  0  0  0  0  0  0  0  0  0
    7.2000   -0.2792    0.0000 Cl  0  0  0  0  0  0  0  0  0  0  0  0
    5.9542   -3.8542    0.0000 O   0  0  0  0  0  0  0  0  0  0  0  0
    6.7875   -2.4292    0.0000 C   0  0  0  0  0  0  0  0  0  0  0  0
    7.2000   -3.1417    0.0000 O   0  0  0  0  0  0  0  0  0  0  0  0
  2  3  1  0
  4  3  1  0
  4  8  1  0
  5  1  1  0
  6  2  1  0
  7  1  1  0
  8 10  1  0
  9  1  2  0
 10 15  1  0
 11  2  2  0
 12  5  2  0
 13  5  1  0
 14 12  1  0
 15 13  2  0
 16  6  1  0
 17  6  1  0
  8 18  1  6
  4 19  1  1
 20 19  1  0
 14 10  2  0
M  CHG  2   1   1   7  -1
M  END
>  <ID>  (315) 


>  <MOLENAME>  (315) 
CHLORAMPHENICOL

>  <therap>  (315) 
antibacterial, antirickettsial, inhibits protein synthesis

>  <ref>  (315) 
IARC Monographs 10:85 (1976); Anal Profiles Drug Subs 4:47 (1975); 15:701 (1986)

>  <cas#>  (315) 
56-75-7

>  <source>  (315) 
Streptomyces venezuelae

>  <status>  (315) 
USP, INN, BAN, JAN

>  <tradename>  (315) 
CHLOROMYCETIN

>  <SMILES>  (315) 
O=C(N[C@@H](CO)[C@H](O)c1ccc([N+](=O)[O-])cc1)C(Cl)Cl

>  <standardized_failed>  (315) 
False

$$$$

     RDKit          2D

 22 23  0  0  0  0  0  0  0  0999 V2000
    5.8667   -2.8667    0.0000 N   0  0  0  0  0  0  0  0  0  0  0  0
    6.5167   -3.2417    0.0000 C   0  0  0  0  0  0  0  0  0  0  0  0
    4.5667   -2.1167    0.0000 N   0  0  0  0  0  0  0  0  0  0  0  0
    6.5167   -3.9917    0.0000 C   0  0  0  0  0  0  0  0  0  0  0  0
    5.8667   -2.1167    0.0000 C   0  0  0  0  0  0  0  0  0  0  0  0
    5.2167   -3.2417    0.0000 C   0  0  0  0  0  0  0  0  0  0  0  0
    7.1667   -2.8667    0.0000 C   0  0  0  0  0  0  0  0  0  0  0  0
    7.1667   -4.3750    0.0000 C   0  0  0  0  0  0  0  0  0  0  0  0
    5.8667   -4.3750    0.0000 C   0  0  0  0  0  0  0  0  0  0  0  0
    4.5667   -2.8667    0.0000 C   0  0  0  0  0  0  0  0  0  0  0  0
    5.2167   -1.7417    0.0000 C   0  0  0  0  0  0  0  0  0  0  0  0
    6.5167   -5.5042    0.0000 C   0  0  0  0  0  0  0  0  0  0  0  0
    5.8667   -5.1292    0.0000 C   0  0  0  0  0  0  0  0  0  0  0  0
    7.1667   -5.1292    0.0000 C   0  0  0  0  0  0  0  0  0  0  0  0
    6.5167   -6.2542    0.0000 Cl  0  0  0  0  0  0  0  0  0  0  0  0
    3.3917   -3.7750    0.0000 Cl  0  0  0  0  0  0  0  0  0  0  0  0
    3.9167   -1.7417    0.0000 C   0  0  0  0  0  0  0  0  0  0  0  0
    7.8167   -3.2417    0.0000 C   0  0  0  0  0  0  0  0  0  0  0  0
    7.1667   -2.1167    0.0000 C   0  0  0  0  0  0  0  0  0  0  0  0
    7.8042   -1.7417    0.0000 C   0  0  0  0  0  0  0  0  0  0  0  0
    8.4667   -2.8667    0.0000 C   0  0  0  0  0  0  0  0  0  0  0  0
    8.4542   -2.1167    0.0000 C   0  0  0  0  0  0  0  0  0  0  0  0
  2  1  1  0
  3 10  1  0
  4  2  1  0
  5  1  1  0
  6  1  1  0
  7  2  1  0
  8  4  2  0
  9  4  1  0
 10  6  1  0
 11  5  1  0
 12 13  1  0
 13  9  2  0
 14  8  1  0
 15 12  1  0
 17  3  1  0
 18  7  2  0
 19  7  1  0
 20 19  2  0
 21 18  1  0
 22 21  2  0
  3 11  1  0
 12 14  2  0
 20 22  1  0
M  END
>  <ID>  (316) 


>  <MOLENAME>  (316) 
CHLORCYCLIZINE HYDROCHLORIDE

>  <therap>  (316) 
H1-antihistamine

>  <ref>  (316) 
J Pharmacol Exp Ther 96:388 (1949)

>  <cas#>  (316) 
1620-21-9, 82-93-9 [base]

>  <source>  (316) 
synthetic

>  <status>  (316) 
USP XXI, INN, BAN

>  <tradename>  (316) 
DI-PARALENE

>  <SMILES>  (316) 
CN1CCN(C(c2ccccc2)c2ccc(Cl)cc2)CC1

>  <standardized_failed>  (316) 
False

$$$$

     RDKit          2D

 36 35  0  0  0  0  0  0  0  0999 V2000
    1.5292   -4.3542    0.0000 C   0  0  0  0  0  0  0  0  0  0  0  0
   11.3792   -3.9292    0.0000 C   0  0  0  0  0  0  0  0  0  0  0  0
   10.6667   -4.3417    0.0000 N   0  0  0  0  0  0  0  0  0  0  0  0
    2.2667   -3.9417    0.0000 N   0  0  0  0  0  0  0  0  0  0  0  0
    3.0042   -4.3792    0.0000 C   0  0  0  0  0  0  0  0  0  0  0  0
    9.9417   -3.9292    0.0000 C   0  0  0  0  0  0  0  0  0  0  0  0
    0.8042   -3.9292    0.0000 N   0  0  0  0  0  0  0  0  0  0  0  0
   12.1042   -4.3667    0.0000 N   0  0  0  0  0  0  0  0  0  0  0  0
    1.5292   -5.1042    0.0000 N   0  0  0  0  0  0  0  0  0  0  0  0
   11.3917   -3.1792    0.0000 N   0  0  0  0  0  0  0  0  0  0  0  0
    9.9542   -3.1792    0.0000 N   0  0  0  0  0  0  0  0  0  0  0  0
    3.0167   -5.1417    0.0000 N   0  0  0  0  0  0  0  0  0  0  0  0
    3.7417   -3.9542    0.0000 N   0  0  0  0  0  0  0  0  0  0  0  0
    9.2292   -4.3292    0.0000 N   0  0  0  0  0  0  0  0  0  0  0  0
   12.7542   -3.9917    0.0000 C   0  0  0  0  0  0  0  0  0  0  0  0
    0.0792   -4.3292    0.0000 C   0  0  0  0  0  0  0  0  0  0  0  0
   14.0542   -3.2292    0.0000 C   0  0  0  0  0  0  0  0  0  0  0  0
   -1.3500   -5.1417    0.0000 C   0  0  0  0  0  0  0  0  0  0  0  0
   14.6917   -2.8542    0.0000 Cl  0  0  0  0  0  0  0  0  0  0  0  0
   -2.0708   -5.5542    0.0000 Cl  0  0  0  0  0  0  0  0  0  0  0  0
    2.2417   -6.4625    0.0000 Cl  0  0  0  0  0  0  0  0  0  0  0  0
   10.6292   -1.8667    0.0000 Cl  0  0  0  0  0  0  0  0  0  0  0  0
   -0.6250   -3.9125    0.0000 C   0  0  0  0  0  0  0  0  0  0  0  0
   12.7542   -3.2417    0.0000 C   0  0  0  0  0  0  0  0  0  0  0  0
    0.0792   -5.1542    0.0000 C   0  0  0  0  0  0  0  0  0  0  0  0
   13.4042   -4.3667    0.0000 C   0  0  0  0  0  0  0  0  0  0  0  0
   13.4042   -2.8667    0.0000 C   0  0  0  0  0  0  0  0  0  0  0  0
   -0.6333   -5.5625    0.0000 C   0  0  0  0  0  0  0  0  0  0  0  0
   14.0542   -3.9792    0.0000 C   0  0  0  0  0  0  0  0  0  0  0  0
   -1.3458   -4.3167    0.0000 C   0  0  0  0  0  0  0  0  0  0  0  0
    4.4792   -4.3917    0.0000 C   0  0  0  0  0  0  0  0  0  0  0  0
    8.4292   -3.8917    0.0000 C   0  0  0  0  0  0  0  0  0  0  0  0
    7.6417   -4.3542    0.0000 C   0  0  0  0  0  0  0  0  0  0  0  0
    5.2667   -3.9292    0.0000 C   0  0  0  0  0  0  0  0  0  0  0  0
    6.0667   -4.3667    0.0000 C   0  0  0  0  0  0  0  0  0  0  0  0
    6.8417   -3.9042    0.0000 C   0  0  0  0  0  0  0  0  0  0  0  0
  2  3  1  0
  3  6  1  0
  4  1  1  0
  5  4  1  0
  6 14  1  0
  7  1  1  0
  8  2  1  0
  9  1  2  0
 10  2  2  0
 11  6  2  0
 12  5  2  0
 13  5  1  0
 14 32  1  0
 15  8  1  0
 16  7  1  0
 17 27  2  0
 18 30  2  0
 19 17  1  0
 20 18  1  0
 23 16  2  0
 24 15  2  0
 25 16  1  0
 26 15  1  0
 27 24  1  0
 28 25  2  0
 29 26  2  0
 30 23  1  0
 31 13  1  0
 32 33  1  0
 33 36  1  0
 34 31  1  0
 35 34  1  0
 36 35  1  0
 28 18  1  0
 29 17  1  0
M  END
>  <ID>  (317) 


>  <MOLENAME>  (317) 
CHLORHEXIDINE DIHYDROCHLORIDE

>  <therap>  (317) 
antibacterial (topical), disinfectant

>  <ref>  (317) 
Br J Pharmacol 9:192 (1954); J Periodontal Res 8 Suppl 12:55 (1973); 21 Suppl 16:1 (1986)

>  <cas#>  (317) 
3697-42-5, 55-56-1 [chlorhexidine]

>  <source>  (317) 
synthetic; AY-5312

>  <status>  (317) 
USP, INN, BAN, JAN

>  <tradename>  (317) 
LISIUM

>  <SMILES>  (317) 
N=C(NCCCCCCNC(=N)NC(=N)Nc1ccc(Cl)cc1)NC(=N)Nc1ccc(Cl)cc1

>  <standardized_failed>  (317) 
False

$$$$

     RDKit          2D

 12 11  0  0  0  0  0  0  0  0999 V2000
    6.5667   -2.6583    0.0000 S   0  0  0  0  0  0  0  0  0  0  0  0
    5.8542   -2.2417    0.0000 N   0  0  0  0  0  0  0  0  0  0  0  0
    7.2792   -3.0667    0.0000 O   0  0  0  0  0  0  0  0  0  0  0  0
    6.5667   -3.4833    0.0000 O   0  0  0  0  0  0  0  0  0  0  0  0
    7.2833   -2.2458    0.0000 O   0  0  0  0  0  0  0  0  0  0  0  0
    5.1375   -2.6542    0.0000 C   0  0  0  0  0  0  0  0  0  0  0  0
    8.4917   -3.0542    0.0000 Na  0  0  0  0  0 15  0  0  0  0  0  0
    5.1375   -3.4792    0.0000 C   0  0  0  0  0  0  0  0  0  0  0  0
    4.4250   -2.2375    0.0000 C   0  0  0  0  0  0  0  0  0  0  0  0
    4.4250   -3.8875    0.0000 C   0  0  0  0  0  0  0  0  0  0  0  0
    3.7167   -2.6542    0.0000 C   0  0  0  0  0  0  0  0  0  0  0  0
    3.7167   -3.4792    0.0000 C   0  0  0  0  0  0  0  0  0  0  0  0
  2  1  1  0
  3  1  1  0
  4  1  2  0
  5  1  2  0
  6  2  1  0
  8  6  1  0
  9  6  1  0
 10  8  1  0
 11  9  1  0
 12 11  1  0
 10 12  1  0
M  CHG  2   3  -1   7   1
M  END
>  <ID>  (318) 


>  <MOLENAME>  (318) 
SODIUM CYCLAMATE

>  <therap>  (318) 
sweetener

>  <ref>  (318) 
Food Cosmet Toxicol 6:313 (1968); 11:735 (1973)

>  <cas#>  (318) 
100-88-9(acid)

>  <source>  (318) 
synthetic

>  <status>  (318) 
NF-XIII, INN, BAN

>  <tradename>  (318) 
SUCARYL SODIUM

>  <SMILES>  (318) 
O=S(=O)([O-])NC1CCCCC1.[Na+]

>  <standardized_failed>  (318) 
False

$$$$

     RDKit          2D

 32 31  0  0  0  0  0  0  0  0999 V2000
    4.1292   -4.2542    0.0000 P   0  0  0  0  0  0  0  0  0  0  0  0
    9.7625   -4.1167    0.0000 P   0  0  0  0  0  0  0  0  0  0  0  0
    7.2250   -3.5125    0.0000 C   0  0  0  0  0  0  0  0  0  0  0  0
    7.8667   -3.8875    0.0000 C   0  0  0  0  0  0  0  0  0  0  0  0
    7.2250   -2.7625    0.0000 C   0  0  0  0  0  0  0  0  0  0  0  0
    7.8667   -4.6375    0.0000 N   0  0  0  0  0  0  0  0  0  0  0  0
    6.5792   -2.3875    0.0000 C   0  0  0  0  0  0  0  0  0  0  0  0
    6.5792   -3.8875    0.0000 C   0  0  0  0  0  0  0  0  0  0  0  0
    7.8667   -2.3875    0.0000 N   0  0  0  0  0  0  0  0  0  0  0  0
    9.7542   -3.4500    0.0000 O   0  0  0  0  0  0  0  0  0  0  0  0
    4.1250   -3.5917    0.0000 O   0  0  0  0  0  0  0  0  0  0  0  0
    4.1250   -4.9292    0.0000 O   0  0  0  0  0  0  0  0  0  0  0  0
    3.4542   -4.2542    0.0000 O   0  0  0  0  0  0  0  0  0  0  0  0
    9.0917   -4.1167    0.0000 O   0  0  0  0  0  0  0  0  0  0  0  0
   10.4292   -4.1167    0.0000 O   0  0  0  0  0  0  0  0  0  0  0  0
    9.7542   -4.7917    0.0000 O   0  0  0  0  0  0  0  0  0  0  0  0
    4.8000   -4.2542    0.0000 O   0  0  0  0  0  0  0  0  0  0  0  0
    5.9292   -2.7625    0.0000 C   0  0  0  0  0  0  0  0  0  0  0  0
    8.5167   -3.5125    0.0000 C   0  0  0  0  0  0  0  0  0  0  0  0
    5.9292   -3.5125    0.0000 C   0  0  0  0  0  0  0  0  0  0  0  0
    8.5167   -2.7625    0.0000 C   0  0  0  0  0  0  0  0  0  0  0  0
    5.8917   -6.7417    0.0000 N   0  0  0  0  0  0  0  0  0  0  0  0
    5.2750   -2.3875    0.0000 Cl  0  0  0  0  0  0  0  0  0  0  0  0
    8.3750   -5.3167    0.0000 C   0  0  0  0  0  0  0  0  0  0  0  0
    7.1292   -6.0292    0.0000 C   0  0  0  0  0  0  0  0  0  0  0  0
    6.7167   -6.7417    0.0000 C   0  0  0  0  0  0  0  0  0  0  0  0
    5.4792   -6.0292    0.0000 C   0  0  0  0  0  0  0  0  0  0  0  0
    5.4792   -7.4542    0.0000 C   0  0  0  0  0  0  0  0  0  0  0  0
    7.9625   -6.0292    0.0000 C   0  0  0  0  0  0  0  0  0  0  0  0
    9.2042   -5.3167    0.0000 C   0  0  0  0  0  0  0  0  0  0  0  0
    4.6500   -6.0292    0.0000 C   0  0  0  0  0  0  0  0  0  0  0  0
    5.8917   -8.1750    0.0000 C   0  0  0  0  0  0  0  0  0  0  0  0
  4  3  2  0
  5  3  1  0
  6  4  1  0
  7  5  1  0
  8  3  1  0
  9  5  2  0
 10  2  2  0
 11  1  2  0
 12  1  1  0
 13  1  1  0
 14  2  1  0
 15  2  1  0
 16  2  1  0
 17  1  1  0
 18 20  1  0
 19  4  1  0
 20  8  2  0
 21  9  1  0
 22 26  1  0
 23 18  1  0
 24  6  1  0
 25 29  1  0
 26 25  1  0
 27 22  1  0
 28 22  1  0
 29 24  1  0
 30 24  1  0
 31 27  1  0
 32 28  1  0
  7 18  2  0
 21 19  2  0
M  END
>  <ID>  (319) 


>  <MOLENAME>  (319) 
CHLOROQUINE DIPHOSPHATE

>  <therap>  (319) 
antimalarial, antiamebic, antirheumatic, intercalating agent

>  <ref>  (319) 
Anal Profiles Drug Subs 5:61 (1976); Ann Rheum Dis 43:200 (1984); Br J Rheumatol 26:279 (1987)

>  <cas#>  (319) 
50-63-5

>  <source>  (319) 
synthetic

>  <status>  (319) 
USP, BAN

>  <tradename>  (319) 
ARALEN

>  <SMILES>  (319) 
CCN(CC)CCCC(C)Nc1c2ccc(Cl)cc2ncc1

>  <standardized_failed>  (319) 
False

$$$$

     RDKit          2D

 17 18  0  0  0  0  0  0  0  0999 V2000
    4.8542   -1.7667    0.0000 S   0  0  0  0  0  0  0  0  0  0  0  0
    2.2500   -1.7667    0.0000 S   0  0  0  0  0  0  0  0  0  0  0  0
    4.2042   -2.1417    0.0000 C   0  0  0  0  0  0  0  0  0  0  0  0
    2.9042   -2.1417    0.0000 C   0  0  0  0  0  0  0  0  0  0  0  0
    5.5125   -2.1417    0.0000 N   0  0  0  0  0  0  0  0  0  0  0  0
    3.5500   -1.7667    0.0000 C   0  0  0  0  0  0  0  0  0  0  0  0
    4.2042   -2.9000    0.0000 C   0  0  0  0  0  0  0  0  0  0  0  0
    2.9042   -2.9000    0.0000 C   0  0  0  0  0  0  0  0  0  0  0  0
    4.8542   -3.2750    0.0000 N   0  0  0  0  0  0  0  0  0  0  0  0
    3.5500   -3.2750    0.0000 C   0  0  0  0  0  0  0  0  0  0  0  0
    5.5125   -2.9000    0.0000 C   0  0  0  0  0  0  0  0  0  0  0  0
    4.2792   -1.1792    0.0000 O   0  0  0  0  0  0  0  0  0  0  0  0
    5.5542   -1.1792    0.0000 O   0  0  0  0  0  0  0  0  0  0  0  0
    2.2500   -1.0167    0.0000 O   0  0  0  0  0  0  0  0  0  0  0  0
    1.6042   -2.1417    0.0000 O   0  0  0  0  0  0  0  0  0  0  0  0
    1.5625   -1.3042    0.0000 N   0  0  0  0  0  0  0  0  0  0  0  0
    2.2542   -3.2750    0.0000 Cl  0  0  0  0  0  0  0  0  0  0  0  0
  2  4  1  0
  3  1  1  0
  4  6  2  0
  5  1  1  0
  6  3  1  0
  7  3  2  0
  8 10  2  0
  9 11  2  0
 10  7  1  0
 11  5  1  0
 12  1  2  0
 13  1  2  0
 14  2  2  0
 15  2  2  0
 16  2  1  0
 17  8  1  0
  9  7  1  0
  8  4  1  0
M  END
>  <ID>  (320) 


>  <MOLENAME>  (320) 
CHLOROTHIAZIDE

>  <therap>  (320) 
diuretic, antihypertensive

>  <ref>  (320) 
Anal Profiles Drug Subs 18:33 (1989)

>  <cas#>  (320) 
58-94-6

>  <source>  (320) 
synthetic

>  <status>  (320) 
USP, INN, BAN

>  <tradename>  (320) 
DIURIL

>  <SMILES>  (320) 
NS(=O)(=O)c1cc2c(cc1Cl)N=CNS2(=O)=O

>  <standardized_failed>  (320) 
False

$$$$

     RDKit          2D

 33 35  0  0  0  0  0  0  0  0999 V2000
    8.2875   -2.3417    0.0000 S   0  0  0  0  0  0  0  0  0  0  0  0
    9.0375   -2.3417    0.0000 N   0  0  0  0  0  0  0  0  0  0  0  0
    3.0375   -3.6375    0.0000 C   0  0  0  0  0  0  0  0  0  0  0  0
    9.4125   -2.9875    0.0000 C   0  0  0  0  0  0  0  0  0  0  0  0
    3.7875   -3.6375    0.0000 C   0  0  0  0  0  0  0  0  0  0  0  0
    7.5375   -2.3417    0.0000 C   0  0  0  0  0  0  0  0  0  0  0  0
    8.2875   -1.5917    0.0000 O   0  0  0  0  0  0  0  0  0  0  0  0
    8.2875   -3.0917    0.0000 O   0  0  0  0  0  0  0  0  0  0  0  0
    2.6625   -4.2875    0.0000 C   0  0  0  0  0  0  0  0  0  0  0  0
    9.0375   -3.6375    0.0000 N   0  0  0  0  0  0  0  0  0  0  0  0
    2.6625   -2.9917    0.0000 C   0  0  0  0  0  0  0  0  0  0  0  0
   10.1625   -2.9875    0.0000 O   0  0  0  0  0  0  0  0  0  0  0  0
    4.1625   -4.2875    0.0000 O   0  0  0  0  0  0  0  0  0  0  0  0
    4.1625   -2.9875    0.0000 N   0  0  0  0  0  0  0  0  0  0  0  0
    7.1625   -1.6917    0.0000 C   0  0  0  0  0  0  0  0  0  0  0  0
    7.1625   -2.9875    0.0000 C   0  0  0  0  0  0  0  0  0  0  0  0
    1.9125   -4.2875    0.0000 C   0  0  0  0  0  0  0  0  0  0  0  0
    1.9125   -2.9917    0.0000 C   0  0  0  0  0  0  0  0  0  0  0  0
    1.5375   -3.6375    0.0000 C   0  0  0  0  0  0  0  0  0  0  0  0
    6.4125   -2.9875    0.0000 C   0  0  0  0  0  0  0  0  0  0  0  0
    6.4125   -1.6917    0.0000 C   0  0  0  0  0  0  0  0  0  0  0  0
    6.0375   -2.3417    0.0000 C   0  0  0  0  0  0  0  0  0  0  0  0
    1.5250   -2.3375    0.0000 Cl  0  0  0  0  0  0  0  0  0  0  0  0
    9.4125   -4.2792    0.0000 C   0  0  0  0  0  0  0  0  0  0  0  0
    3.0375   -4.9417    0.0000 O   0  0  0  0  0  0  0  0  0  0  0  0
    4.9125   -2.9875    0.0000 C   0  0  0  0  0  0  0  0  0  0  0  0
    5.2875   -2.3417    0.0000 C   0  0  0  0  0  0  0  0  0  0  0  0
    2.6625   -5.5917    0.0000 C   0  0  0  0  0  0  0  0  0  0  0  0
    9.0292   -4.9292    0.0000 C   0  0  0  0  0  0  0  0  0  0  0  0
   10.1625   -4.2792    0.0000 C   0  0  0  0  0  0  0  0  0  0  0  0
   10.5292   -4.9292    0.0000 C   0  0  0  0  0  0  0  0  0  0  0  0
    9.4042   -5.5792    0.0000 C   0  0  0  0  0  0  0  0  0  0  0  0
   10.1542   -5.5792    0.0000 C   0  0  0  0  0  0  0  0  0  0  0  0
  2  1  1  0
  3  5  1  0
  4  2  1  0
  5 14  1  0
  6  1  1  0
  7  1  2  0
  8  1  2  0
  9  3  2  0
 10  4  1  0
 11  3  1  0
 12  4  2  0
 13  5  2  0
 14 26  1  0
 15  6  2  0
 16  6  1  0
 17  9  1  0
 18 11  2  0
 19 18  1  0
 20 16  2  0
 21 15  1  0
 22 20  1  0
 23 18  1  0
 24 10  1  0
 25  9  1  0
 26 27  1  0
 27 22  1  0
 28 25  1  0
 29 24  1  0
 30 24  1  0
 31 30  1  0
 32 29  1  0
 33 31  1  0
 22 21  2  0
 32 33  1  0
 17 19  2  0
M  END
>  <ID>  (321) 


>  <MOLENAME>  (321) 
GLYBURIDE

>  <therap>  (321) 
antihyperglycemic

>  <ref>  (321) 
Arzneim Forsch 19:1413 (1969); Pharmacotherapy 5:43 (1985)

>  <cas#>  (321) 
10238-21-8

>  <source>  (321) 
synthetic; HB-419, U-26452

>  <status>  (321) 
USP, INN, BAN, JAN

>  <tradename>  (321) 
GLYNASE

>  <SMILES>  (321) 
COc1c(C(=O)NCCc2ccc(S(=O)(=O)NC(=O)NC3CCCCC3)cc2)cc(Cl)cc1

>  <standardized_failed>  (321) 
False

$$$$

     RDKit          2D

 10 10  0  0  0  0  0  0  0  0999 V2000
    2.6375   -2.5917    0.0000 C   0  0  0  0  0  0  0  0  0  0  0  0
    1.9917   -2.2167    0.0000 C   0  0  0  0  0  0  0  0  0  0  0  0
    3.2917   -2.2167    0.0000 C   0  0  0  0  0  0  0  0  0  0  0  0
    1.9917   -1.4625    0.0000 C   0  0  0  0  0  0  0  0  0  0  0  0
    3.2917   -1.4625    0.0000 C   0  0  0  0  0  0  0  0  0  0  0  0
    2.6375   -1.0792    0.0000 C   0  0  0  0  0  0  0  0  0  0  0  0
    2.6375   -3.3417    0.0000 Cl  0  0  0  0  0  0  0  0  0  0  0  0
    2.6375   -0.3292    0.0000 O   0  0  0  0  0  0  0  0  0  0  0  0
    1.3417   -2.5917    0.0000 C   0  0  0  0  0  0  0  0  0  0  0  0
    3.9417   -2.5917    0.0000 C   0  0  0  0  0  0  0  0  0  0  0  0
  2  1  2  0
  3  1  1  0
  4  2  1  0
  5  3  2  0
  6  5  1  0
  7  1  1  0
  8  6  1  0
  9  2  1  0
 10  3  1  0
  6  4  2  0
M  END
>  <ID>  (322) 


>  <MOLENAME>  (322) 
CHLOROXYLENOL

>  <therap>  (322) 
antibacterial, topical and urinary antiseptic

>  <ref>  (322) 
J. Hosp. Infect. (1998), 38(4), 283-95; Am. J. Infect. Control (1988), 16(4), 173-7; Infect. Control (1986), 7(5), 268-72

>  <cas#>  (322) 
88-04-0

>  <source>  (322) 
synthetic

>  <status>  (322) 
USP, INN, BAN

>  <tradename>  (322) 
DETTOL

>  <SMILES>  (322) 
Cc1c(Cl)c(C)cc(O)c1

>  <standardized_failed>  (322) 
False

$$$$

     RDKit          2D

 27 27  0  0  0  0  0  0  0  0999 V2000
    8.1250   -1.7250    0.0000 C   0  0  0  0  0  0  0  0  0  0  0  0
    8.1250   -0.3625    0.0000 C   0  0  0  0  0  0  0  0  0  0  0  0
    7.5375   -0.7042    0.0000 C   0  0  0  0  0  0  0  0  0  0  0  0
    7.5375   -1.3875    0.0000 C   0  0  0  0  0  0  0  0  0  0  0  0
    4.5125   -2.4125    0.0000 C   0  0  0  0  0  0  0  0  0  0  0  0
    4.5125   -1.6667    0.0000 C   0  0  0  0  0  0  0  0  0  0  0  0
    3.2125   -2.4250    0.0000 N   0  0  0  0  0  0  0  0  0  0  0  0
    5.1625   -2.7875    0.0000 C   0  0  0  0  0  0  0  0  0  0  0  0
    3.8625   -2.8000    0.0000 C   0  0  0  0  0  0  0  0  0  0  0  0
    8.1250    0.3208    0.0000 O   0  0  0  0  0  0  0  0  0  0  0  0
    8.7125   -1.3875    0.0000 O   0  0  0  0  0  0  0  0  0  0  0  0
    5.8125   -2.4125    0.0000 C   0  0  0  0  0  0  0  0  0  0  0  0
    5.1625   -3.5417    0.0000 C   0  0  0  0  0  0  0  0  0  0  0  0
    5.1625   -1.2917    0.0000 C   0  0  0  0  0  0  0  0  0  0  0  0
    5.1625   -0.5417    0.0000 N   0  0  0  0  0  0  0  0  0  0  0  0
    6.4625   -3.5417    0.0000 C   0  0  0  0  0  0  0  0  0  0  0  0
    8.7125   -0.7042    0.0000 O   0  0  0  0  0  0  0  0  0  0  0  0
    8.1250   -2.4125    0.0000 O   0  0  0  0  0  0  0  0  0  0  0  0
    5.8125   -3.9167    0.0000 C   0  0  0  0  0  0  0  0  0  0  0  0
    6.4625   -2.7875    0.0000 C   0  0  0  0  0  0  0  0  0  0  0  0
    7.1125   -3.9250    0.0000 Cl  0  0  0  0  0  0  0  0  0  0  0  0
    2.5625   -2.8000    0.0000 C   0  0  0  0  0  0  0  0  0  0  0  0
    3.8625   -3.5500    0.0000 C   0  0  0  0  0  0  0  0  0  0  0  0
    5.8042   -0.1667    0.0000 C   0  0  0  0  0  0  0  0  0  0  0  0
    4.5125   -0.1667    0.0000 C   0  0  0  0  0  0  0  0  0  0  0  0
    2.5625   -3.5500    0.0000 C   0  0  0  0  0  0  0  0  0  0  0  0
    3.2125   -3.9250    0.0000 C   0  0  0  0  0  0  0  0  0  0  0  0
  2  3  1  0
  3  4  2  0
  4  1  1  0
  6  5  1  0
  7  9  2  0
  8  5  1  0
  9  5  1  0
 10  2  2  0
 11  1  2  0
 12  8  2  0
 13  8  1  0
 14  6  1  0
 15 14  1  0
 16 19  1  0
 17  2  1  0
 18  1  1  0
 19 13  2  0
 20 12  1  0
 21 16  1  0
 22  7  1  0
 23  9  1  0
 24 15  1  0
 25 15  1  0
 26 27  1  0
 27 23  2  0
 20 16  2  0
 22 26  2  0
M  END
>  <ID>  (323) 


>  <MOLENAME>  (323) 
CHLORPHENIRAMINE MALEATE

>  <therap>  (323) 
antihistaminic

>  <ref>  (323) 
J Pharmacol Exp Ther 124:347 (1958); Toxicol Appl Pharmacol 28:240 (1974)

>  <cas#>  (323) 
113-92-8, 132-22-9 [chlorpheniramine]

>  <source>  (323) 
synthetic

>  <status>  (323) 
USP, INN, BAN

>  <tradename>  (323) 
TELDRIN

>  <SMILES>  (323) 
CN(C)CCC(c1ccc(Cl)cc1)c1ncccc1

>  <standardized_failed>  (323) 
False

$$$$

     RDKit          2D

 21 23  0  0  0  0  0  0  0  0999 V2000
    1.4167   -0.6167    0.0000 N   0  0  0  0  0  0  0  0  0  0  0  0
    2.0667   -0.9917    0.0000 C   0  0  0  0  0  0  0  0  0  0  0  0
    1.4167   -2.1250    0.0000 S   0  0  0  0  0  0  0  0  0  0  0  0
    0.7625   -0.9917    0.0000 C   0  0  0  0  0  0  0  0  0  0  0  0
    2.0667   -1.7500    0.0000 C   0  0  0  0  0  0  0  0  0  0  0  0
    0.7625   -1.7500    0.0000 C   0  0  0  0  0  0  0  0  0  0  0  0
    2.7250   -0.6167    0.0000 C   0  0  0  0  0  0  0  0  0  0  0  0
    2.7250   -2.1250    0.0000 C   0  0  0  0  0  0  0  0  0  0  0  0
    1.4167    0.1333    0.0000 C   0  0  0  0  0  0  0  0  0  0  0  0
    3.3750   -0.9917    0.0000 C   0  0  0  0  0  0  0  0  0  0  0  0
    0.7667    0.5083    0.0000 C   0  0  0  0  0  0  0  0  0  0  0  0
   -0.5333    0.5083    0.0000 N   0  0  0  0  0  0  0  0  0  0  0  0
    3.3750   -1.7500    0.0000 C   0  0  0  0  0  0  0  0  0  0  0  0
    4.0250   -0.6167    0.0000 Cl  0  0  0  0  0  0  0  0  0  0  0  0
    0.1042   -0.6167    0.0000 C   0  0  0  0  0  0  0  0  0  0  0  0
    0.1042   -2.1250    0.0000 C   0  0  0  0  0  0  0  0  0  0  0  0
    0.1167    0.1333    0.0000 C   0  0  0  0  0  0  0  0  0  0  0  0
   -1.1833    0.1333    0.0000 C   0  0  0  0  0  0  0  0  0  0  0  0
   -0.5333    1.2583    0.0000 C   0  0  0  0  0  0  0  0  0  0  0  0
   -0.5375   -0.9917    0.0000 C   0  0  0  0  0  0  0  0  0  0  0  0
   -0.5375   -1.7500    0.0000 C   0  0  0  0  0  0  0  0  0  0  0  0
  2  1  1  0
  3  6  1  0
  4  1  1  0
  5  2  2  0
  6  4  2  0
  7  2  1  0
  8  5  1  0
  9  1  1  0
 10  7  2  0
 11  9  1  0
 12 17  1  0
 13 10  1  0
 14 10  1  0
 15  4  1  0
 16  6  1  0
 17 11  1  0
 18 12  1  0
 19 12  1  0
 20 15  2  0
 21 20  1  0
  5  3  1  0
 21 16  2  0
 13  8  2  0
M  END
>  <ID>  (324) 


>  <MOLENAME>  (324) 
CHLORPROMAZINE

>  <therap>  (324) 
antiemetic, antipsychotic

>  <ref>  (324) 
Eur J Pharmacol 11:303 (1970); Toxicol Appl Pharmacol 18:185 (1971)

>  <cas#>  (324) 
50-53-3

>  <source>  (324) 
synthetic

>  <status>  (324) 
USP, INN, BAN, JAN

>  <tradename>  (324) 
THORAZINE

>  <SMILES>  (324) 
CN(C)CCCN1c2c(cccc2)Sc2c1cc(Cl)cc2

>  <standardized_failed>  (324) 
False

$$$$

     RDKit          2D

 17 17  0  0  0  0  0  0  0  0999 V2000
    2.0792   -2.0250    0.0000 S   0  0  0  0  0  0  0  0  0  0  0  0
    2.8292   -2.0250    0.0000 N   0  0  0  0  0  0  0  0  0  0  0  0
    3.2042   -2.6667    0.0000 C   0  0  0  0  0  0  0  0  0  0  0  0
    1.3292   -2.0250    0.0000 C   0  0  0  0  0  0  0  0  0  0  0  0
    2.0792   -2.7750    0.0000 O   0  0  0  0  0  0  0  0  0  0  0  0
    2.0042   -1.3042    0.0000 O   0  0  0  0  0  0  0  0  0  0  0  0
    2.8292   -3.3167    0.0000 O   0  0  0  0  0  0  0  0  0  0  0  0
    3.9542   -2.6667    0.0000 N   0  0  0  0  0  0  0  0  0  0  0  0
    0.9542   -1.3792    0.0000 C   0  0  0  0  0  0  0  0  0  0  0  0
    0.9542   -2.6750    0.0000 C   0  0  0  0  0  0  0  0  0  0  0  0
   -0.1708   -2.0250    0.0000 C   0  0  0  0  0  0  0  0  0  0  0  0
    0.2042   -1.3792    0.0000 C   0  0  0  0  0  0  0  0  0  0  0  0
    0.2042   -2.6750    0.0000 C   0  0  0  0  0  0  0  0  0  0  0  0
   -0.9208   -2.0250    0.0000 Cl  0  0  0  0  0  0  0  0  0  0  0  0
    4.3292   -3.3167    0.0000 C   0  0  0  0  0  0  0  0  0  0  0  0
    5.0792   -3.3167    0.0000 C   0  0  0  0  0  0  0  0  0  0  0  0
    5.4542   -3.9625    0.0000 C   0  0  0  0  0  0  0  0  0  0  0  0
  2  1  1  0
  3  2  1  0
  4  1  1  0
  5  1  2  0
  6  1  2  0
  7  3  2  0
  8  3  1  0
  9  4  2  0
 10  4  1  0
 11 13  1  0
 12  9  1  0
 13 10  2  0
 14 11  1  0
 15  8  1  0
 16 15  1  0
 17 16  1  0
 11 12  2  0
M  END
>  <ID>  (325) 


>  <MOLENAME>  (325) 
CHLORPROPAMIDE

>  <therap>  (325) 
antidiabetic

>  <ref>  (325) 
Indian J Med Res 55:1084 (1967); Toxicol Appl Pharmacol 18:185 (1971)

>  <cas#>  (325) 
94-20-2

>  <source>  (325) 
synthetic

>  <status>  (325) 
USP, INN, BAN, JAN

>  <tradename>  (325) 
DIABINESE

>  <SMILES>  (325) 
CCCNC(=O)NS(=O)(=O)c1ccc(Cl)cc1

>  <standardized_failed>  (325) 
False

$$$$

     RDKit          2D

 34 36  0  0  0  0  0  0  0  0999 V2000
    3.5625    0.1958    0.0000 C   0  0  0  0  0  0  0  0  0  0  0  0
    2.1292    0.1958    0.0000 C   0  0  0  0  0  0  0  0  0  0  0  0
    4.9917    0.1958    0.0000 C   0  0  0  0  0  0  0  0  0  0  0  0
    2.8500    0.6083    0.0000 C   0  0  0  0  0  0  0  0  0  0  0  0
    4.2750    0.6083    0.0000 C   0  0  0  0  0  0  0  0  0  0  0  0
    1.4250    0.6083    0.0000 C   0  0  0  0  0  0  0  0  0  0  0  0
    3.5625   -0.6292    0.0000 C   0  0  0  0  0  0  0  0  0  0  0  0
    0.7042   -0.6292    0.0000 C   0  0  0  0  0  0  0  0  0  0  0  0
    0.7042    0.1958    0.0000 C   0  0  0  0  0  0  0  0  0  0  0  0
    4.9917   -0.6292    0.0000 C   0  0  0  0  0  0  0  0  0  0  0  0
    1.4250   -1.0417    0.0000 C   0  0  0  0  0  0  0  0  0  0  0  0
    2.1292   -0.6292    0.0000 C   0  0  0  0  0  0  0  0  0  0  0  0
    4.2750   -1.0417    0.0000 C   0  0  0  0  0  0  0  0  0  0  0  0
    2.8500   -1.0417    0.0000 C   0  0  0  0  0  0  0  0  0  0  0  0
    5.7125    0.6083    0.0000 C   0  0  0  0  0  0  0  0  0  0  0  0
   -0.0083   -1.0417    0.0000 C   0  0  0  0  0  0  0  0  0  0  0  0
   -0.0083    0.6083    0.0000 C   0  0  0  0  0  0  0  0  0  0  0  0
    4.2750    1.4333    0.0000 O   0  0  0  0  0  0  0  0  0  0  0  0
    1.4250    1.4333    0.0000 O   0  0  0  0  0  0  0  0  0  0  0  0
    4.2750   -1.8667    0.0000 N   0  0  0  0  0  0  0  0  0  0  0  0
    3.5750    0.9458    0.0000 O   0  0  0  0  0  0  0  0  0  0  0  0
    6.4250    0.1958    0.0000 O   0  0  0  0  0  0  0  0  0  0  0  0
    2.8500    1.4333    0.0000 O   0  0  0  0  0  0  0  0  0  0  0  0
    5.7125   -1.0542    0.0000 O   0  0  0  0  0  0  0  0  0  0  0  0
    0.8625   -1.6542    0.0000 O   0  0  0  0  0  0  0  0  0  0  0  0
   -0.7250   -0.6292    0.0000 C   0  0  0  0  0  0  0  0  0  0  0  0
   -0.7250    0.1958    0.0000 C   0  0  0  0  0  0  0  0  0  0  0  0
    5.7167    1.4333    0.0000 N   0  0  0  0  0  0  0  0  0  0  0  0
    1.8375   -1.7542    0.0000 C   0  0  0  0  0  0  0  0  0  0  0  0
   -0.0083   -1.8667    0.0000 Cl  0  0  0  0  0  0  0  0  0  0  0  0
   -0.0083    1.4333    0.0000 O   0  0  0  0  0  0  0  0  0  0  0  0
    5.7375   -2.1667    0.0000 Cl  0  0  0  0  0  0  0  0  0  0  0  0
    4.9917   -2.2792    0.0000 C   0  0  0  0  0  0  0  0  0  0  0  0
    3.5625   -2.2792    0.0000 C   0  0  0  0  0  0  0  0  0  0  0  0
  2  4  2  0
  3  5  1  0
  4  1  1  0
  5  1  1  0
  6  2  1  0
  7  1  1  0
  8 11  1  0
  9  6  1  0
 10 13  1  0
 11 12  1  0
 12 14  1  6
 13  7  1  0
  7 14  1  6
 15  3  1  0
 16  8  2  0
 17  9  2  0
 18  5  2  0
 19  6  2  0
 13 20  1  1
  1 21  1  1
 22 15  2  0
 23  4  1  0
 24 10  1  0
 11 25  1  0
 26 16  1  0
 27 17  1  0
 28 15  1  0
 11 29  1  1
 30 16  1  0
 31 17  1  0
 33 20  1  0
 34 20  1  0
  2 12  1  0
 10  3  2  0
  9  8  1  0
 26 27  2  0
M  END
>  <ID>  (326) 


>  <MOLENAME>  (326) 
CHLORTETRACYCLINE HYDROCHLORIDE

>  <therap>  (326) 
antibacterial, antiamebic, Ca chelator, hepatotoxic; inhibits protein synthesis

>  <ref>  (326) 
Ann NY Acad Sci 51: 177 (1948); JACS 74: 4976 (1952); 76: 3568 (1954)

>  <cas#>  (326) 
64-72-2

>  <source>  (326) 
Streptomyces aureofaciens

>  <status>  (326) 
USP, BAN

>  <tradename>  (326) 
AUREOMYCIN

>  <SMILES>  (326) 
CN(C)[C@@H]1C(O)=C(C(N)=O)C(=O)[C@@]2(O)C(O)=C3C(=O)c4c(O)ccc(Cl)c4[C@@](C)(O)[C@H]3C[C@@H]12

>  <standardized_failed>  (326) 
False

$$$$

     RDKit          2D

 22 24  0  0  0  0  0  0  0  0999 V2000
    4.9042   -4.0417    0.0000 C   0  0  0  0  0  0  0  0  0  0  0  0
    5.3875   -4.7167    0.0000 N   0  0  0  0  0  0  0  0  0  0  0  0
    5.6917   -1.2875    0.0000 S   0  0  0  0  0  0  0  0  0  0  0  0
    5.8917   -2.1000    0.0000 C   0  0  0  0  0  0  0  0  0  0  0  0
    4.9042   -5.3792    0.0000 C   0  0  0  0  0  0  0  0  0  0  0  0
    4.1167   -4.3000    0.0000 C   0  0  0  0  0  0  0  0  0  0  0  0
    5.4917   -3.4667    0.0000 C   0  0  0  0  0  0  0  0  0  0  0  0
    4.1167   -5.1250    0.0000 C   0  0  0  0  0  0  0  0  0  0  0  0
    5.2917   -2.6750    0.0000 C   0  0  0  0  0  0  0  0  0  0  0  0
    6.6792   -2.3250    0.0000 C   0  0  0  0  0  0  0  0  0  0  0  0
    5.5042   -0.4792    0.0000 O   0  0  0  0  0  0  0  0  0  0  0  0
    6.5042   -1.0917    0.0000 O   0  0  0  0  0  0  0  0  0  0  0  0
    5.1542   -6.1667    0.0000 O   0  0  0  0  0  0  0  0  0  0  0  0
    4.7125   -1.2750    0.0000 N   0  0  0  0  0  0  0  0  0  0  0  0
    6.2875   -3.7000    0.0000 C   0  0  0  0  0  0  0  0  0  0  0  0
    4.5167   -3.3167    0.0000 O   0  0  0  0  0  0  0  0  0  0  0  0
    6.8792   -3.1292    0.0000 C   0  0  0  0  0  0  0  0  0  0  0  0
    7.2667   -1.7417    0.0000 Cl  0  0  0  0  0  0  0  0  0  0  0  0
    3.4042   -3.8875    0.0000 C   0  0  0  0  0  0  0  0  0  0  0  0
    3.4042   -5.5375    0.0000 C   0  0  0  0  0  0  0  0  0  0  0  0
    2.6917   -4.3000    0.0000 C   0  0  0  0  0  0  0  0  0  0  0  0
    2.6917   -5.1250    0.0000 C   0  0  0  0  0  0  0  0  0  0  0  0
  2  1  1  0
  3  4  1  0
  4  9  2  0
  5  2  1  0
  6  1  1  0
  7  1  1  0
  8  6  2  0
  9  7  1  0
 10 17  2  0
 11  3  2  0
 12  3  2  0
 13  5  2  0
 14  3  1  0
 15  7  2  0
 16  1  1  0
 17 15  1  0
 18 10  1  0
 19  6  1  0
 20  8  1  0
 21 19  2  0
 22 21  1  0
  5  8  1  0
  4 10  1  0
 22 20  2  0
M  END
>  <ID>  (327) 


>  <MOLENAME>  (327) 
CHLORTHALIDONE

>  <therap>  (327) 
diuretic, antihypertensive

>  <ref>  (327) 
Med Welt 1967:1384; J Pharmacol Exp Ther 180:723 (1972)

>  <cas#>  (327) 
77-36-1

>  <source>  (327) 
synthetic; G-33182

>  <status>  (327) 
USP, INN, BAN, JAN

>  <tradename>  (327) 
THALITONE

>  <SMILES>  (327) 
NS(=O)(=O)c1cc(C2(O)NC(=O)c3c2cccc3)ccc1Cl

>  <standardized_failed>  (327) 
False

$$$$

     RDKit          2D

 11 12  0  0  0  0  0  0  0  0999 V2000
    2.5375    0.9458    0.0000 C   0  0  0  0  0  0  0  0  0  0  0  0
    2.5375    0.1875    0.0000 N   0  0  0  0  0  0  0  0  0  0  0  0
    1.8792    1.3250    0.0000 O   0  0  0  0  0  0  0  0  0  0  0  0
    1.2292    0.1875    0.0000 C   0  0  0  0  0  0  0  0  0  0  0  0
    1.2292    0.9458    0.0000 C   0  0  0  0  0  0  0  0  0  0  0  0
    0.5750   -0.1875    0.0000 C   0  0  0  0  0  0  0  0  0  0  0  0
    3.1875    1.3208    0.0000 O   0  0  0  0  0  0  0  0  0  0  0  0
    0.5750    1.3208    0.0000 C   0  0  0  0  0  0  0  0  0  0  0  0
   -0.0708    0.1875    0.0000 C   0  0  0  0  0  0  0  0  0  0  0  0
   -0.0708    0.9458    0.0000 C   0  0  0  0  0  0  0  0  0  0  0  0
   -0.7208   -0.1875    0.0000 Cl  0  0  0  0  0  0  0  0  0  0  0  0
  2  1  1  0
  3  1  1  0
  4  2  1  0
  5  3  1  0
  6  4  2  0
  7  1  2  0
  8  5  2  0
  9  6  1  0
 10  8  1  0
 11  9  1  0
  4  5  1  0
  9 10  2  0
M  END
>  <ID>  (328) 


>  <MOLENAME>  (328) 
CHLORZOXAZONE

>  <therap>  (328) 
muscle relaxant (skeletal)

>  <ref>  (328) 
Arzneim Forsch 17:242 (1967); Curr Ther Res 9:537 (1967); 19:51 (1976)

>  <cas#>  (328) 
95-25-0

>  <source>  (328) 
synthetic

>  <status>  (328) 
USP, INN, BAN, JAN

>  <tradename>  (328) 
PARAFON

>  <SMILES>  (328) 
O=c1[nH]c2cc(Cl)ccc2o1

>  <standardized_failed>  (328) 
False

$$$$

     RDKit          2D

  8  7  0  0  0  0  0  0  0  0999 V2000
    4.2042   -3.8042    0.0000 C   0  0  0  0  0  0  0  0  0  0  0  0
    4.9167   -3.3917    0.0000 C   0  0  0  0  0  0  0  0  0  0  0  0
    4.2042   -4.6292    0.0000 O   0  0  0  0  0  0  0  0  0  0  0  0
    4.9125   -2.5667    0.0000 O   0  0  0  0  0  0  0  0  0  0  0  0
    2.7792   -3.8042    0.0000 O   0  0  0  0  0  0  0  0  0  0  0  0
    6.3417   -3.3875    0.0000 O   0  0  0  0  0  0  0  0  0  0  0  0
    5.6292   -3.8000    0.0000 C   0  0  0  0  0  0  0  0  0  0  0  0
    3.4917   -3.3917    0.0000 C   0  0  0  0  0  0  0  0  0  0  0  0
  2  1  1  0
  3  1  1  0
  2  4  1  1
  5  8  1  0
  6  7  1  0
  7  2  1  0
  8  1  1  0
M  END
>  <ID>  (329) 


>  <MOLENAME>  (329) 
ERYTHRITOL

>  <therap>  (329) 
sweetener

>  <ref>  (329) 
nan

>  <cas#>  (329) 
149-32-6

>  <source>  (329) 
synthetic

>  <status>  (329) 
NF

>  <tradename>  (329) 
nan

>  <SMILES>  (329) 
OCC(O)[C@@H](O)CO

>  <standardized_failed>  (329) 
False

$$$$

     RDKit          2D

 19 21  0  0  0  0  0  0  0  0999 V2000
    4.4917   -2.6500    0.0000 C   0  0  0  0  0  0  0  0  0  0  0  0
    4.4917   -1.9000    0.0000 N   0  0  0  0  0  0  0  0  0  0  0  0
    3.1917   -2.6500    0.0000 C   0  0  0  0  0  0  0  0  0  0  0  0
    3.8417   -3.0250    0.0000 C   0  0  0  0  0  0  0  0  0  0  0  0
    3.8417   -1.5250    0.0000 N   0  0  0  0  0  0  0  0  0  0  0  0
    3.1917   -1.9000    0.0000 C   0  0  0  0  0  0  0  0  0  0  0  0
    2.5417   -1.5250    0.0000 C   0  0  0  0  0  0  0  0  0  0  0  0
    2.5417   -3.0250    0.0000 C   0  0  0  0  0  0  0  0  0  0  0  0
    5.1417   -3.0250    0.0000 C   0  0  0  0  0  0  0  0  0  0  0  0
    1.8917   -1.9000    0.0000 C   0  0  0  0  0  0  0  0  0  0  0  0
    1.8917   -2.6500    0.0000 C   0  0  0  0  0  0  0  0  0  0  0  0
    1.2417   -1.5167    0.0000 O   0  0  0  0  0  0  0  0  0  0  0  0
    0.6000   -2.6500    0.0000 O   0  0  0  0  0  0  0  0  0  0  0  0
    3.8417   -3.7750    0.0000 O   0  0  0  0  0  0  0  0  0  0  0  0
    0.6000   -1.9000    0.0000 C   0  0  0  0  0  0  0  0  0  0  0  0
    6.0000   -2.4917    0.0000 O   0  0  0  0  0  0  0  0  0  0  0  0
    5.1542   -3.7667    0.0000 O   0  0  0  0  0  0  0  0  0  0  0  0
    3.8417   -0.7750    0.0000 C   0  0  0  0  0  0  0  0  0  0  0  0
    4.4917   -0.4000    0.0000 C   0  0  0  0  0  0  0  0  0  0  0  0
  2  1  2  0
  3  4  1  0
  4  1  1  0
  5  2  1  0
  6  3  2  0
  7  6  1  0
  8  3  1  0
  9  1  1  0
 10 11  1  0
 11  8  2  0
 12 10  1  0
 13 11  1  0
 14  4  2  0
 15 13  1  0
 16  9  2  0
 17  9  1  0
 18  5  1  0
 19 18  1  0
  6  5  1  0
  7 10  2  0
 15 12  1  0
M  END
>  <ID>  (330) 


>  <MOLENAME>  (330) 
CINOXACIN

>  <therap>  (330) 
antibacterial

>  <ref>  (330) 
Pharmacotherapy 2:266 (1982); Drugs 25:544 (1983)

>  <cas#>  (330) 
28657-80-9

>  <source>  (330) 
synthetic; 64716

>  <status>  (330) 
USP, INN, BAN, JAN

>  <tradename>  (330) 
CINOBAC

>  <SMILES>  (330) 
CCn1nc(C(=O)O)c(=O)c2c1cc1OCOc1c2

>  <standardized_failed>  (330) 
False

$$$$

     RDKit          2D

 32 33  0  0  0  0  0  0  0  0999 V2000
    6.7667   -5.2792    0.0000 C   0  0  0  0  0  0  0  0  0  0  0  0
    4.7042   -7.4125    0.0000 N   0  0  0  0  0  0  0  0  0  0  0  0
    7.1625   -7.4917    0.0000 C   0  0  0  0  0  0  0  0  0  0  0  0
    8.9042   -7.8292    0.0000 C   0  0  0  0  0  0  0  0  0  0  0  0
    8.3250   -7.4917    0.0000 C   0  0  0  0  0  0  0  0  0  0  0  0
    7.7417   -7.8292    0.0000 C   0  0  0  0  0  0  0  0  0  0  0  0
    6.7667   -4.4542    0.0000 C   0  0  0  0  0  0  0  0  0  0  0  0
    4.2917   -6.6917    0.0000 C   0  0  0  0  0  0  0  0  0  0  0  0
    7.5917   -5.2792    0.0000 C   0  0  0  0  0  0  0  0  0  0  0  0
    7.1625   -6.8167    0.0000 O   0  0  0  0  0  0  0  0  0  0  0  0
    8.9042   -8.5042    0.0000 O   0  0  0  0  0  0  0  0  0  0  0  0
    7.4875   -4.0417    0.0000 C   0  0  0  0  0  0  0  0  0  0  0  0
    6.0542   -4.0417    0.0000 C   0  0  0  0  0  0  0  0  0  0  0  0
    5.9417   -5.2667    0.0000 O   0  0  0  0  0  0  0  0  0  0  0  0
    6.7667   -2.8000    0.0000 C   0  0  0  0  0  0  0  0  0  0  0  0
    4.7042   -5.9792    0.0000 C   0  0  0  0  0  0  0  0  0  0  0  0
    6.5792   -7.8292    0.0000 O   0  0  0  0  0  0  0  0  0  0  0  0
    9.4917   -7.4917    0.0000 O   0  0  0  0  0  0  0  0  0  0  0  0
    6.0542   -3.2125    0.0000 C   0  0  0  0  0  0  0  0  0  0  0  0
    7.4875   -3.2125    0.0000 C   0  0  0  0  0  0  0  0  0  0  0  0
    6.7667   -1.9750    0.0000 Cl  0  0  0  0  0  0  0  0  0  0  0  0
    4.1417   -8.0292    0.0000 C   0  0  0  0  0  0  0  0  0  0  0  0
    5.5292   -5.9792    0.0000 C   0  0  0  0  0  0  0  0  0  0  0  0
    5.5292   -7.4917    0.0000 C   0  0  0  0  0  0  0  0  0  0  0  0
    6.7667   -6.1042    0.0000 C   0  0  0  0  0  0  0  0  0  0  0  0
    3.4000   -7.6875    0.0000 C   0  0  0  0  0  0  0  0  0  0  0  0
    3.4792   -6.8667    0.0000 C   0  0  0  0  0  0  0  0  0  0  0  0
    8.0042   -5.9917    0.0000 C   0  0  0  0  0  0  0  0  0  0  0  0
    8.0042   -4.5625    0.0000 C   0  0  0  0  0  0  0  0  0  0  0  0
    8.8375   -4.5625    0.0000 C   0  0  0  0  0  0  0  0  0  0  0  0
    8.8375   -5.9917    0.0000 C   0  0  0  0  0  0  0  0  0  0  0  0
    9.2500   -5.2792    0.0000 C   0  0  0  0  0  0  0  0  0  0  0  0
  2  8  1  0
  4  5  1  0
  5  6  2  0
  6  3  1  0
  7  1  1  0
  8 16  1  6
  9  1  1  0
 10  3  2  0
 11  4  2  0
 12  7  2  0
 13  7  1  0
 14  1  1  0
 15 19  1  0
 16 23  1  0
 17  3  1  0
 18  4  1  0
 19 13  2  0
 20 12  1  0
 21 15  1  0
 22  2  1  0
 23 14  1  0
 24  2  1  0
  1 25  1  6
 26 27  1  0
 27  8  1  0
 28  9  2  0
 29  9  1  0
 30 29  2  0
 31 28  1  0
 32 30  1  0
 15 20  2  0
 31 32  2  0
 26 22  1  0
M  END
>  <ID>  (331) 


>  <MOLENAME>  (331) 
CLEMASTINE FUMARATE

>  <therap>  (331) 
antihistaminic

>  <ref>  (331) 
Boll Chim Pharm 106:467 (1967)

>  <cas#>  (331) 
14976-57-9, 15686-51-8 (base)

>  <source>  (331) 
synthetic

>  <status>  (331) 
USAN, BAN

>  <tradename>  (331) 
TAVIST

>  <SMILES>  (331) 
CN1CCC[C@@H]1CCO[C@](C)(c1ccccc1)c1ccc(Cl)cc1

>  <standardized_failed>  (331) 
False

$$$$

     RDKit          2D

 27 29  0  0  0  0  0  0  0  0999 V2000
    6.4167   -4.4250    0.0000 C   0  0  0  0  0  0  0  0  0  0  0  0
    3.8542   -5.9292    0.0000 N   0  0  0  0  0  0  0  0  0  0  0  0
    7.2417   -4.4250    0.0000 C   0  0  0  0  0  0  0  0  0  0  0  0
    6.0042   -5.1375    0.0000 O   0  0  0  0  0  0  0  0  0  0  0  0
    5.2042   -5.1250    0.0000 C   0  0  0  0  0  0  0  0  0  0  0  0
    4.7917   -5.9292    0.0000 C   0  0  0  0  0  0  0  0  0  0  0  0
    6.0042   -3.7125    0.0000 O   0  0  0  0  0  0  0  0  0  0  0  0
    4.7542   -4.4125    0.0000 C   0  0  0  0  0  0  0  0  0  0  0  0
    7.2417   -5.2500    0.0000 C   0  0  0  0  0  0  0  0  0  0  0  0
    8.0667   -4.4250    0.0000 C   0  0  0  0  0  0  0  0  0  0  0  0
    4.0375   -5.0167    0.0000 C   0  0  0  0  0  0  0  0  0  0  0  0
    3.3750   -5.2167    0.0000 C   0  0  0  0  0  0  0  0  0  0  0  0
    4.6750   -6.9625    0.0000 Br  0  0  0  0  0  0  0  0  0  0  0  0
    3.7792   -4.4125    0.0000 C   0  0  0  0  0  0  0  0  0  0  0  0
    4.6667   -5.0667    0.0000 C   0  0  0  0  0  0  0  0  0  0  0  0
    7.2417   -3.6000    0.0000 O   0  0  0  0  0  0  0  0  0  0  0  0
    3.4042   -6.7750    0.0000 C   0  0  0  0  0  0  0  0  0  0  0  0
    6.5292   -5.6625    0.0000 C   0  0  0  0  0  0  0  0  0  0  0  0
    8.4792   -3.7042    0.0000 C   0  0  0  0  0  0  0  0  0  0  0  0
    7.9542   -5.6625    0.0000 C   0  0  0  0  0  0  0  0  0  0  0  0
    8.4792   -5.1375    0.0000 C   0  0  0  0  0  0  0  0  0  0  0  0
    7.9542   -6.4917    0.0000 C   0  0  0  0  0  0  0  0  0  0  0  0
    6.5292   -6.4917    0.0000 C   0  0  0  0  0  0  0  0  0  0  0  0
    9.3042   -5.1375    0.0000 C   0  0  0  0  0  0  0  0  0  0  0  0
    9.3042   -3.7042    0.0000 C   0  0  0  0  0  0  0  0  0  0  0  0
    9.7167   -4.4250    0.0000 C   0  0  0  0  0  0  0  0  0  0  0  0
    7.2417   -6.9042    0.0000 C   0  0  0  0  0  0  0  0  0  0  0  0
  2  6  1  0
  3  1  1  0
  4  1  1  0
  5  4  1  0
  6  5  1  0
  7  1  2  0
  8  5  1  0
  9  3  1  0
 10  3  1  0
 11 15  1  0
 12 14  1  0
 14  8  1  0
 15  8  1  0
 16  3  1  0
 17  2  1  0
 18  9  2  0
 19 10  2  0
 20  9  1  0
 21 10  1  0
 22 20  2  0
 23 18  1  0
 24 21  2  0
 25 19  1  0
 26 25  2  0
 27 22  1  0
 12  2  1  0
 11  2  1  0
 26 24  1  0
 23 27  2  0
M  CHG  2   2   1  13  -1
M  END
>  <ID>  (332) 


>  <MOLENAME>  (332) 
CLIDINIUM BROMIDE

>  <therap>  (332) 
anticholinergic

>  <ref>  (332) 
Anal Profiles Drug Subs 2:145 (1973)

>  <cas#>  (332) 
3485-62-9

>  <source>  (332) 
synthetic; Ro-2-3773

>  <status>  (332) 
USP, INN, BAN

>  <tradename>  (332) 
QUARZAN

>  <SMILES>  (332) 
C[N+]12CCC(CC1)C(OC(=O)C(O)(c1ccccc1)c1ccccc1)C2

>  <standardized_failed>  (332) 
False

$$$$

     RDKit          2D

 28 28  0  0  0  0  0  0  0  0999 V2000
    7.0542   -2.6542    0.0000 C   0  0  0  0  0  0  0  0  0  0  0  0
    7.8792   -2.6542    0.0000 O   0  0  0  0  0  0  0  0  0  0  0  0
    6.6417   -3.3667    0.0000 C   0  0  0  0  0  0  0  0  0  0  0  0
    7.8792   -4.0792    0.0000 C   0  0  0  0  0  0  0  0  0  0  0  0
    7.0542   -4.0792    0.0000 C   0  0  0  0  0  0  0  0  0  0  0  0
    6.6292   -1.9292    0.0000 C   0  0  0  0  0  0  0  0  0  0  0  0
    5.3792   -1.2417    0.0000 C   0  0  0  0  0  0  0  0  0  0  0  0
    5.8042   -1.9417    0.0000 N   0  0  0  0  0  0  0  0  0  0  0  0
    8.2917   -3.3667    0.0000 C   0  0  0  0  0  0  0  0  0  0  0  0
    4.1417   -0.5292    0.0000 N   0  0  0  0  0  0  0  0  0  0  0  0
    4.5542   -1.2417    0.0000 C   0  0  0  0  0  0  0  0  0  0  0  0
    3.3292   -0.7042    0.0000 C   0  0  0  0  0  0  0  0  0  0  0  0
    5.7917   -0.5167    0.0000 O   0  0  0  0  0  0  0  0  0  0  0  0
    3.9917   -1.8667    0.0000 C   0  0  0  0  0  0  0  0  0  0  0  0
    7.0417   -1.2042    0.0000 C   0  0  0  0  0  0  0  0  0  0  0  0
    9.1167   -3.3667    0.0000 S   0  0  0  0  0  0  0  0  0  0  0  0
    3.2542   -1.5292    0.0000 C   0  0  0  0  0  0  0  0  0  0  0  0
    8.3042   -4.8042    0.0000 O   0  0  0  0  0  0  0  0  0  0  0  0
    5.8167   -3.3667    0.0000 O   0  0  0  0  0  0  0  0  0  0  0  0
    6.6292   -4.8042    0.0000 O   0  0  0  0  0  0  0  0  0  0  0  0
    4.4792    0.2333    0.0000 C   0  0  0  0  0  0  0  0  0  0  0  0
    7.8667   -1.1917    0.0000 Cl  0  0  0  0  0  0  0  0  0  0  0  0
    2.6292    0.1583    0.0000 Cl  0  0  0  0  0  0  0  0  0  0  0  0
    2.5292   -1.9542    0.0000 C   0  0  0  0  0  0  0  0  0  0  0  0
    9.5292   -2.6542    0.0000 C   0  0  0  0  0  0  0  0  0  0  0  0
    6.6167   -0.5042    0.0000 C   0  0  0  0  0  0  0  0  0  0  0  0
    2.5417   -2.7792    0.0000 C   0  0  0  0  0  0  0  0  0  0  0  0
    1.8292   -3.1917    0.0000 C   0  0  0  0  0  0  0  0  0  0  0  0
  2  1  1  0
  3  1  1  0
  4  5  1  0
  5  3  1  0
  6  1  1  0
  7  8  1  0
  6  8  1  6
  9  2  1  0
 10 11  1  0
 11  7  1  6
 12 10  1  0
 13  7  2  0
 14 11  1  0
 15  6  1  0
  9 16  1  6
 17 14  1  0
  4 18  1  6
  3 19  1  1
  5 20  1  1
 21 10  1  0
 15 22  1  0
 17 24  1  1
 25 16  1  0
 15 26  1  6
 27 24  1  0
 28 27  1  0
  4  9  1  0
 17 12  1  0
M  END
>  <ID>  (333) 


>  <MOLENAME>  (333) 
CLINDAMYCIN HYDROCHLORIDE

>  <therap>  (333) 
antibacterial, inhibits protein synthesis

>  <ref>  (333) 
Toxicol Appl Pharmacol 21:516 (1971); Anal Profiles Drug Subs 10:75 (1981)

>  <cas#>  (333) 
21462-39-5, 58207-19-5 [monohydrate], 18323-44-9 [clindamycin]

>  <source>  (333) 
semisynthetic; U-21251

>  <status>  (333) 
USAN, INN, BAN

>  <tradename>  (333) 
CLINSOL

>  <SMILES>  (333) 
CCC[C@@H]1C[C@@H](C(=O)N[C@@H](C2O[C@H](SC)[C@H](O)[C@@H](O)[C@H]2O)[C@H](C)Cl)N(C)C1

>  <standardized_failed>  (333) 
False

$$$$

     RDKit          2D

 42 43  0  0  0  0  0  0  0  0999 V2000
    2.3000   -4.9167    0.0000 C   0  0  0  0  0  0  0  0  0  0  0  0
    8.2875   -3.2667    0.0000 C   0  0  0  0  0  0  0  0  0  0  0  0
    8.7000   -2.5542    0.0000 C   0  0  0  0  0  0  0  0  0  0  0  0
    1.7042   -4.5750    0.0000 C   0  0  0  0  0  0  0  0  0  0  0  0
    2.8917   -4.5750    0.0000 C   0  0  0  0  0  0  0  0  0  0  0  0
    2.2917   -5.6042    0.0000 C   0  0  0  0  0  0  0  0  0  0  0  0
    3.4875   -4.9167    0.0000 C   0  0  0  0  0  0  0  0  0  0  0  0
    1.1042   -4.9167    0.0000 C   0  0  0  0  0  0  0  0  0  0  0  0
    7.4625   -3.2667    0.0000 C   0  0  0  0  0  0  0  0  0  0  0  0
    8.7000   -3.9792    0.0000 C   0  0  0  0  0  0  0  0  0  0  0  0
    9.5292   -2.5542    0.0000 C   0  0  0  0  0  0  0  0  0  0  0  0
    1.6917   -5.9500    0.0000 O   0  0  0  0  0  0  0  0  0  0  0  0
    3.4875   -5.6042    0.0000 O   0  0  0  0  0  0  0  0  0  0  0  0
    0.5125   -4.5750    0.0000 O   0  0  0  0  0  0  0  0  0  0  0  0
    8.2875   -1.8417    0.0000 Cl  0  0  0  0  0  0  0  0  0  0  0  0
    7.0500   -3.9792    0.0000 C   0  0  0  0  0  0  0  0  0  0  0  0
    7.0500   -2.5542    0.0000 C   0  0  0  0  0  0  0  0  0  0  0  0
    2.2917   -4.2292    0.0000 O   0  0  0  0  0  0  0  0  0  0  0  0
    2.8875   -5.9542    0.0000 O   0  0  0  0  0  0  0  0  0  0  0  0
    3.3292   -1.8417    0.0000 N   0  0  0  0  0  0  0  0  0  0  0  0
    5.8042   -3.2667    0.0000 C   0  0  0  0  0  0  0  0  0  0  0  0
    1.1042   -5.6042    0.0000 O   0  0  0  0  0  0  0  0  0  0  0  0
    4.0792   -4.5750    0.0000 O   0  0  0  0  0  0  0  0  0  0  0  0
    6.2167   -3.9792    0.0000 C   0  0  0  0  0  0  0  0  0  0  0  0
    6.2167   -2.5542    0.0000 C   0  0  0  0  0  0  0  0  0  0  0  0
    4.9792   -3.2667    0.0000 O   0  0  0  0  0  0  0  0  0  0  0  0
    4.5667   -2.5542    0.0000 C   0  0  0  0  0  0  0  0  0  0  0  0
    3.7417   -2.5542    0.0000 C   0  0  0  0  0  0  0  0  0  0  0  0
    9.5292   -3.9792    0.0000 C   0  0  0  0  0  0  0  0  0  0  0  0
    9.9417   -3.2667    0.0000 C   0  0  0  0  0  0  0  0  0  0  0  0
    9.9417   -1.8417    0.0000 C   0  0  0  0  0  0  0  0  0  0  0  0
    8.2875   -4.6917    0.0000 C   0  0  0  0  0  0  0  0  0  0  0  0
    2.5000   -1.8417    0.0000 C   0  0  0  0  0  0  0  0  0  0  0  0
    3.7417   -1.1292    0.0000 C   0  0  0  0  0  0  0  0  0  0  0  0
    2.0875   -1.1292    0.0000 C   0  0  0  0  0  0  0  0  0  0  0  0
    4.5667   -1.1292    0.0000 C   0  0  0  0  0  0  0  0  0  0  0  0
   10.7667   -3.2667    0.0000 C   0  0  0  0  0  0  0  0  0  0  0  0
   10.7667   -1.8417    0.0000 C   0  0  0  0  0  0  0  0  0  0  0  0
    8.7000   -5.4125    0.0000 C   0  0  0  0  0  0  0  0  0  0  0  0
    9.9417   -4.6917    0.0000 C   0  0  0  0  0  0  0  0  0  0  0  0
   11.1792   -2.5542    0.0000 C   0  0  0  0  0  0  0  0  0  0  0  0
    9.5292   -5.4125    0.0000 C   0  0  0  0  0  0  0  0  0  0  0  0
  3  2  2  0
  4  1  1  0
  5  1  1  0
  6  1  1  0
  7  5  1  0
  8  4  1  0
  9  2  1  0
 10  2  1  0
 11  3  1  0
 12  6  2  0
 13  7  2  0
 14  8  2  0
 15  3  1  0
 16  9  2  0
 17  9  1  0
 18  1  1  0
 19  6  1  0
 20 28  1  0
 21 25  1  0
 22  8  1  0
 23  7  1  0
 24 16  1  0
 25 17  2  0
 26 21  1  0
 27 26  1  0
 28 27  1  0
 29 10  2  0
 30 11  2  0
 31 11  1  0
 32 10  1  0
 33 20  1  0
 34 20  1  0
 35 33  1  0
 36 34  1  0
 37 30  1  0
 38 31  2  0
 39 32  2  0
 40 29  1  0
 41 38  1  0
 42 39  1  0
 24 21  2  0
 40 42  2  0
 41 37  2  0
M  END
>  <ID>  (334) 


>  <MOLENAME>  (334) 
CLOMIPHENE CITRATE

>  <therap>  (334) 
gonad stimulating principle

>  <ref>  (334) 
Fertil Steril 12:402 (1961); 28:707 (1977); Hum Reprod Update 2:483 (1996)

>  <cas#>  (334) 
50-41-9, 911-45-5 [clomiphene]

>  <source>  (334) 
synthetic; MRL-41, MER-41

>  <status>  (334) 
USP, INN, BAN

>  <tradename>  (334) 
CLOMID

>  <SMILES>  (334) 
CCN(CC)CCOc1ccc(/C(=C(\Cl)c2ccccc2)c2ccccc2)cc1

>  <standardized_failed>  (334) 
False

$$$$

     RDKit          2D

 15 15  0  0  0  0  0  0  0  0999 V2000
    4.8167   -3.8542    0.0000 C   0  0  0  0  0  0  0  0  0  0  0  0
    6.4417   -3.5167    0.0000 C   0  0  0  0  0  0  0  0  0  0  0  0
    5.5792   -3.4792    0.0000 N   0  0  0  0  0  0  0  0  0  0  0  0
    4.1667   -3.4792    0.0000 N   0  0  0  0  0  0  0  0  0  0  0  0
    4.8167   -4.6042    0.0000 N   0  0  0  0  0  0  0  0  0  0  0  0
    6.8292   -4.1667    0.0000 C   0  0  0  0  0  0  0  0  0  0  0  0
    6.8167   -2.8542    0.0000 C   0  0  0  0  0  0  0  0  0  0  0  0
    6.4292   -2.2167    0.0000 Cl  0  0  0  0  0  0  0  0  0  0  0  0
    6.4542   -4.8167    0.0000 Cl  0  0  0  0  0  0  0  0  0  0  0  0
    4.5500   -6.0292    0.0000 Cl  0  0  0  0  0  0  0  0  0  0  0  0
    3.5167   -4.6042    0.0000 C   0  0  0  0  0  0  0  0  0  0  0  0
    3.5167   -3.8542    0.0000 C   0  0  0  0  0  0  0  0  0  0  0  0
    7.9542   -3.5042    0.0000 C   0  0  0  0  0  0  0  0  0  0  0  0
    7.5792   -4.1667    0.0000 C   0  0  0  0  0  0  0  0  0  0  0  0
    7.5667   -2.8542    0.0000 C   0  0  0  0  0  0  0  0  0  0  0  0
  2  3  1  0
  3  1  2  0
  4  1  1  0
  5  1  1  0
  6  2  2  0
  7  2  1  0
  8  7  1  0
  9  6  1  0
 11  5  1  0
 12  4  1  0
 13 15  1  0
 14  6  1  0
 15  7  2  0
 11 12  1  0
 13 14  2  0
M  END
>  <ID>  (335) 


>  <MOLENAME>  (335) 
CLONIDINE HYDROCHLORIDE

>  <therap>  (335) 
antihypertensive

>  <ref>  (335) 
J Pharmacol Exp Ther 227:421 (1983); Anal Profiles Drug Subs Excip 21:109 (1992)

>  <cas#>  (335) 
4205-91-8, 4205-90-7 [clonidine]

>  <source>  (335) 
synthetic; ST-155

>  <status>  (335) 
USP, INN, BAN

>  <tradename>  (335) 
CATAPRES

>  <SMILES>  (335) 
Clc1cccc(Cl)c1N=C1NCCN1

>  <standardized_failed>  (335) 
False

$$$$

     RDKit          2D

 25 28  0  0  0  0  0  0  0  0999 V2000
    3.2292   -2.4792    0.0000 C   0  0  0  0  0  0  0  0  0  0  0  0
    3.2292   -3.2292    0.0000 N   0  0  0  0  0  0  0  0  0  0  0  0
    3.2292   -1.7292    0.0000 C   0  0  0  0  0  0  0  0  0  0  0  0
    3.4792   -4.4167    0.0000 N   0  0  0  0  0  0  0  0  0  0  0  0
    3.7875   -3.7375    0.0000 C   0  0  0  0  0  0  0  0  0  0  0  0
    2.5792   -3.6042    0.0000 C   0  0  0  0  0  0  0  0  0  0  0  0
    2.5792   -1.3542    0.0000 C   0  0  0  0  0  0  0  0  0  0  0  0
    2.7417   -4.3417    0.0000 C   0  0  0  0  0  0  0  0  0  0  0  0
    3.9792   -2.4792    0.0000 C   0  0  0  0  0  0  0  0  0  0  0  0
    2.4792   -2.4792    0.0000 C   0  0  0  0  0  0  0  0  0  0  0  0
    2.3000   -1.4917    0.0000 Cl  0  0  0  0  0  0  0  0  0  0  0  0
    3.8792   -1.3542    0.0000 C   0  0  0  0  0  0  0  0  0  0  0  0
    2.5792   -0.6042    0.0000 C   0  0  0  0  0  0  0  0  0  0  0  0
    4.3542   -3.1292    0.0000 C   0  0  0  0  0  0  0  0  0  0  0  0
    4.3542   -1.8292    0.0000 C   0  0  0  0  0  0  0  0  0  0  0  0
    2.1042   -1.8292    0.0000 C   0  0  0  0  0  0  0  0  0  0  0  0
    2.1042   -3.1292    0.0000 C   0  0  0  0  0  0  0  0  0  0  0  0
    3.8792   -0.6042    0.0000 C   0  0  0  0  0  0  0  0  0  0  0  0
    1.3542   -3.1292    0.0000 C   0  0  0  0  0  0  0  0  0  0  0  0
    1.3542   -1.8292    0.0000 C   0  0  0  0  0  0  0  0  0  0  0  0
    3.2292   -0.2292    0.0000 C   0  0  0  0  0  0  0  0  0  0  0  0
    5.1042   -3.1292    0.0000 C   0  0  0  0  0  0  0  0  0  0  0  0
    5.1042   -1.8292    0.0000 C   0  0  0  0  0  0  0  0  0  0  0  0
    0.9792   -2.4792    0.0000 C   0  0  0  0  0  0  0  0  0  0  0  0
    5.4792   -2.4792    0.0000 C   0  0  0  0  0  0  0  0  0  0  0  0
  2  1  1  0
  3  1  1  0
  4  5  2  0
  5  2  1  0
  6  2  1  0
  7  3  2  0
  8  6  2  0
  9  1  1  0
 10  1  1  0
 11  7  1  0
 12  3  1  0
 13  7  1  0
 14  9  2  0
 15  9  1  0
 16 10  2  0
 17 10  1  0
 18 12  2  0
 19 17  2  0
 20 16  1  0
 21 18  1  0
 22 14  1  0
 23 15  2  0
 24 19  1  0
 25 23  1  0
  4  8  1  0
 24 20  2  0
 25 22  2  0
 21 13  2  0
M  END
>  <ID>  (336) 


>  <MOLENAME>  (336) 
CLOTRIMAZOLE

>  <therap>  (336) 
antifungal

>  <ref>  (336) 
Arzneim Forsch 22:1260, 1276 (1972)

>  <cas#>  (336) 
23593-75-1

>  <source>  (336) 
synthetic; Bay-5097, FB-5097

>  <status>  (336) 
USP, INN, BAN, JAN

>  <tradename>  (336) 
MYCELEX

>  <SMILES>  (336) 
Clc1c(C(c2ccccc2)(c2ccccc2)n2ccnc2)cccc1

>  <standardized_failed>  (336) 
False

$$$$

     RDKit          2D

 30 32  0  0  0  0  0  0  0  0999 V2000
    8.1917   -4.0250    0.0000 N   0  0  0  0  0  0  0  0  0  0  0  0
    8.1917   -4.7750    0.0000 C   0  0  0  0  0  0  0  0  0  0  0  0
    7.4417   -4.0250    0.0000 C   0  0  0  0  0  0  0  0  0  0  0  0
    7.4417   -4.7750    0.0000 C   0  0  0  0  0  0  0  0  0  0  0  0
    5.6000   -5.8792    0.0000 C   0  0  0  0  0  0  0  0  0  0  0  0
    4.7792   -5.8750    0.0000 C   0  0  0  0  0  0  0  0  0  0  0  0
    8.8417   -3.6417    0.0000 C   0  0  0  0  0  0  0  0  0  0  0  0
    9.4917   -4.7750    0.0000 S   0  0  0  0  0  0  0  0  0  0  0  0
    6.0917   -5.2125    0.0000 C   0  0  0  0  0  0  0  0  0  0  0  0
    4.5167   -6.6625    0.0000 N   0  0  0  0  0  0  0  0  0  0  0  0
    9.4917   -4.0250    0.0000 C   0  0  0  0  0  0  0  0  0  0  0  0
    6.9125   -5.3042    0.0000 N   0  0  0  0  0  0  0  0  0  0  0  0
    4.1250   -5.4917    0.0000 C   0  0  0  0  0  0  0  0  0  0  0  0
    5.1792   -7.1417    0.0000 O   0  0  0  0  0  0  0  0  0  0  0  0
    5.8542   -6.6667    0.0000 C   0  0  0  0  0  0  0  0  0  0  0  0
    8.8542   -2.9917    0.0000 C   0  0  0  0  0  0  0  0  0  0  0  0
    6.9542   -3.5875    0.0000 O   0  0  0  0  0  0  0  0  0  0  0  0
    5.7542   -4.4542    0.0000 O   0  0  0  0  0  0  0  0  0  0  0  0
    4.1250   -4.7417    0.0000 C   0  0  0  0  0  0  0  0  0  0  0  0
    9.4792   -2.5250    0.0000 O   0  0  0  0  0  0  0  0  0  0  0  0
    8.1667   -2.4917    0.0000 O   0  0  0  0  0  0  0  0  0  0  0  0
    4.7750   -4.3667    0.0000 Cl  0  0  0  0  0  0  0  0  0  0  0  0
   10.2625   -4.2417    0.0000 C   0  0  0  0  0  0  0  0  0  0  0  0
   10.0750   -3.5250    0.0000 C   0  0  0  0  0  0  0  0  0  0  0  0
    3.4667   -5.8667    0.0000 C   0  0  0  0  0  0  0  0  0  0  0  0
   10.5667   -2.7750    0.0000 Na  0  0  0  0  0 15  0  0  0  0  0  0
    6.6417   -6.9292    0.0000 C   0  0  0  0  0  0  0  0  0  0  0  0
    3.4667   -4.3542    0.0000 C   0  0  0  0  0  0  0  0  0  0  0  0
    2.8250   -5.4917    0.0000 C   0  0  0  0  0  0  0  0  0  0  0  0
    2.8250   -4.7417    0.0000 C   0  0  0  0  0  0  0  0  0  0  0  0
  2  1  1  0
  3  1  1  0
  4  3  1  0
  5  9  1  0
  6  5  1  0
  7  1  1  0
  2  8  1  6
  9 12  1  0
 10  6  2  0
 11  7  1  0
  4 12  1  6
 13  6  1  0
 14 15  1  0
 15  5  2  0
  7 16  1  1
 17  3  2  0
 18  9  2  0
 19 13  2  0
 20 16  1  0
 21 16  2  0
 22 19  1  0
 23 11  1  0
 24 11  1  0
 25 13  1  0
 27 15  1  0
 28 19  1  0
 29 25  2  0
 30 29  1  0
 11  8  1  0
  4  2  1  0
 14 10  1  0
 30 28  2  0
M  CHG  2  20  -1  26   1
M  END
>  <ID>  (337) 


>  <MOLENAME>  (337) 
CLOXACILLIN SODIUM

>  <therap>  (337) 
antibacterial

>  <ref>  (337) 
Nature 195:1264 (1962); Toxicol Appl Pharmacol 18:185 (1971)

>  <cas#>  (337) 
7081-44-9, 642-78-4 [anhydrous]

>  <source>  (337) 
semisynthetic; BRL-1621

>  <status>  (337) 
USP, INN, BAN, JAN

>  <tradename>  (337) 
TEGOPEN

>  <SMILES>  (337) 
Cc1c(C(=O)N[C@@H]2C(=O)N3[C@@H](C(=O)O)C(C)(C)S[C@H]23)c(-c2c(Cl)cccc2)no1

>  <standardized_failed>  (337) 
False

$$$$

     RDKit          2D

 12 13  0  0  0  0  0  0  0  0999 V2000
    2.3167   -2.8125    0.0000 C   0  0  0  0  0  0  0  0  0  0  0  0
    2.3167   -2.0542    0.0000 C   0  0  0  0  0  0  0  0  0  0  0  0
    2.9750   -1.6792    0.0000 N   0  0  0  0  0  0  0  0  0  0  0  0
    1.6667   -3.1875    0.0000 C   0  0  0  0  0  0  0  0  0  0  0  0
    1.6667   -1.6792    0.0000 C   0  0  0  0  0  0  0  0  0  0  0  0
    1.0167   -2.8125    0.0000 C   0  0  0  0  0  0  0  0  0  0  0  0
    1.0167   -2.0542    0.0000 C   0  0  0  0  0  0  0  0  0  0  0  0
    1.6667   -3.9375    0.0000 Cl  0  0  0  0  0  0  0  0  0  0  0  0
    1.6667   -0.9292    0.0000 O   0  0  0  0  0  0  0  0  0  0  0  0
    2.9750   -3.1875    0.0000 C   0  0  0  0  0  0  0  0  0  0  0  0
    3.6292   -2.0542    0.0000 C   0  0  0  0  0  0  0  0  0  0  0  0
    3.6292   -2.8125    0.0000 C   0  0  0  0  0  0  0  0  0  0  0  0
  2  1  1  0
  3  2  2  0
  4  1  1  0
  5  2  1  0
  6  4  2  0
  7  6  1  0
  8  4  1  0
  9  5  1  0
 10  1  2  0
 11 12  2  0
 12 10  1  0
  3 11  1  0
  7  5  2  0
M  END
>  <ID>  (338) 


>  <MOLENAME>  (338) 
CLOXYQUIN

>  <therap>  (338) 
antibacterial, antifungal

>  <ref>  (338) 
Antimicrob. Agents Chemother. (2007), 51(3), 1105-1106; J. Pharm. Sci. (1991), 80(6), 542-4; Mol. Pharmacol. (1982), 22(1), 140-4

>  <cas#>  (338) 
130-16-5

>  <source>  (338) 
synthetic

>  <status>  (338) 
USAN, INN

>  <tradename>  (338) 
nan

>  <SMILES>  (338) 
Oc1ccc(Cl)c2cccnc12

>  <standardized_failed>  (338) 
False

$$$$

     RDKit          2D

 29 31  0  0  0  0  0  0  0  0999 V2000
    5.8792   -3.4750    0.0000 C   0  0  0  0  0  0  0  0  0  0  0  0
    6.6792   -3.2917    0.0000 C   0  0  0  0  0  0  0  0  0  0  0  0
    5.2417   -2.9625    0.0000 C   0  0  0  0  0  0  0  0  0  0  0  0
    4.5292   -3.3750    0.0000 C   0  0  0  0  0  0  0  0  0  0  0  0
    7.3250   -3.8042    0.0000 C   0  0  0  0  0  0  0  0  0  0  0  0
    3.8125   -2.9625    0.0000 C   0  0  0  0  0  0  0  0  0  0  0  0
    5.5250   -4.2125    0.0000 C   0  0  0  0  0  0  0  0  0  0  0  0
    5.2417   -2.1375    0.0000 C   0  0  0  0  0  0  0  0  0  0  0  0
    7.3250   -4.6292    0.0000 C   0  0  0  0  0  0  0  0  0  0  0  0
    7.0417   -2.5542    0.0000 C   0  0  0  0  0  0  0  0  0  0  0  0
    3.8125   -2.1375    0.0000 C   0  0  0  0  0  0  0  0  0  0  0  0
    5.8792   -4.9625    0.0000 C   0  0  0  0  0  0  0  0  0  0  0  0
    6.6875   -5.1500    0.0000 C   0  0  0  0  0  0  0  0  0  0  0  0
    7.8667   -2.5625    0.0000 N   0  0  0  0  0  0  0  0  0  0  0  0
    4.5292   -1.7250    0.0000 C   0  0  0  0  0  0  0  0  0  0  0  0
    8.2750   -3.2792    0.0000 C   0  0  0  0  0  0  0  0  0  0  0  0
    5.8792   -1.6250    0.0000 C   0  0  0  0  0  0  0  0  0  0  0  0
    8.0792   -4.9917    0.0000 O   0  0  0  0  0  0  0  0  0  0  0  0
    6.6792   -1.8042    0.0000 C   0  0  0  0  0  0  0  0  0  0  0  0
    9.1000   -3.2792    0.0000 O   0  0  0  0  0  0  0  0  0  0  0  0
    4.5292   -4.1917    0.0000 O   0  0  0  0  0  0  0  0  0  0  0  0
    3.0917   -3.3750    0.0000 O   0  0  0  0  0  0  0  0  0  0  0  0
    3.0917   -1.7167    0.0000 O   0  0  0  0  0  0  0  0  0  0  0  0
    6.8750   -5.9542    0.0000 O   0  0  0  0  0  0  0  0  0  0  0  0
    7.8542   -3.9917    0.0000 C   0  0  0  0  0  0  0  0  0  0  0  0
    3.8167   -4.6125    0.0000 C   0  0  0  0  0  0  0  0  0  0  0  0
    3.0875   -4.1917    0.0000 C   0  0  0  0  0  0  0  0  0  0  0  0
    3.0917   -0.8875    0.0000 C   0  0  0  0  0  0  0  0  0  0  0  0
    7.6625   -6.1917    0.0000 C   0  0  0  0  0  0  0  0  0  0  0  0
  2  1  1  0
  3  1  1  0
  4  3  2  0
  5  2  2  0
  6  4  1  0
  7  1  2  0
  8  3  1  0
  9  5  1  0
 10  2  1  0
 11 15  1  0
 12  7  1  0
 13 12  2  0
 10 14  1  6
 15  8  2  0
 16 14  1  0
 17  8  1  0
 18  9  2  0
 19 10  1  0
 20 16  2  0
 21  4  1  0
 22  6  1  0
 23 11  1  0
 24 13  1  0
 25 16  1  0
 26 21  1  0
 27 22  1  0
 28 23  1  0
 29 24  1  0
 13  9  1  0
 19 17  1  0
 11  6  2  0
M  END
>  <ID>  (339) 


>  <MOLENAME>  (339) 
COLCHICINE

>  <therap>  (339) 
antimitotic, antigout agent

>  <ref>  (339) 
J Am Chem Soc 74: 487 (1952)

>  <cas#>  (339) 
64-86-8

>  <source>  (339) 
Colchicum autumnale

>  <status>  (339) 
USP, JAN

>  <tradename>  (339) 
nan

>  <SMILES>  (339) 
COc1c(OC)c(OC)c2c(c1)CC[C@H](NC(C)=O)c1cc(=O)c(OC)ccc1-2

>  <standardized_failed>  (339) 
False

$$$$

     RDKit          2D

111106  0  0  0  0  0  0  0  0999 V2000
    6.2667    0.3708    0.0000 N   0  0  0  0  0  0  0  0  0  0  0  0
    6.9792   -3.0542    0.0000 N   0  0  0  0  0  0  0  0  0  0  0  0
   -3.7833    0.0833    0.0000 S   0  0  0  0  0  0  0  0  0  0  0  0
    6.0167    3.0000    0.0000 S   0  0  0  0  0  0  0  0  0  0  0  0
   11.6500   -0.6667    0.0000 S   0  0  0  0  0  0  0  0  0  0  0  0
   10.6417    1.2708    0.0000 S   0  0  0  0  0  0  0  0  0  0  0  0
   -0.5083   -5.1792    0.0000 S   0  0  0  0  0  0  0  0  0  0  0  0
    4.7667   -3.0542    0.0000 N   0  0  0  0  0  0  0  0  0  0  0  0
    6.1042   -3.0667    0.0000 C   0  0  0  0  0  0  0  0  0  0  0  0
    5.1750    0.3708    0.0000 C   0  0  0  0  0  0  0  0  0  0  0  0
    8.4167   -3.7167    0.0000 C   0  0  0  0  0  0  0  0  0  0  0  0
    1.2167    1.3125    0.0000 C   0  0  0  0  0  0  0  0  0  0  0  0
    1.9375    1.7250    0.0000 C   0  0  0  0  0  0  0  0  0  0  0  0
    8.7792   -3.0917    0.0000 N   0  0  0  0  0  0  0  0  0  0  0  0
    0.5042    1.7250    0.0000 N   0  0  0  0  0  0  0  0  0  0  0  0
    6.6750   -0.3750    0.0000 C   0  0  0  0  0  0  0  0  0  0  0  0
    2.9542   -2.1875    0.0000 N   0  0  0  0  0  0  0  0  0  0  0  0
    7.7792   -1.1542    0.0000 N   0  0  0  0  0  0  0  0  0  0  0  0
    3.8917   -3.5000    0.0000 C   0  0  0  0  0  0  0  0  0  0  0  0
    8.0667   -1.9042    0.0000 C   0  0  0  0  0  0  0  0  0  0  0  0
    2.0167   -1.7167    0.0000 C   0  0  0  0  0  0  0  0  0  0  0  0
    5.4375   -3.4417    0.0000 C   0  0  0  0  0  0  0  0  0  0  0  0
    7.5792   -3.7167    0.0000 C   0  0  0  0  0  0  0  0  0  0  0  0
   -0.2083    1.3125    0.0000 C   0  0  0  0  0  0  0  0  0  0  0  0
    4.3000    0.3708    0.0000 C   0  0  0  0  0  0  0  0  0  0  0  0
    2.1792    0.4333    0.0000 C   0  0  0  0  0  0  0  0  0  0  0  0
    2.6417    1.3083    0.0000 N   0  0  0  0  0  0  0  0  0  0  0  0
    1.5250   -0.1917    0.0000 N   0  0  0  0  0  0  0  0  0  0  0  0
    7.7792   -0.3792    0.0000 C   0  0  0  0  0  0  0  0  0  0  0  0
    2.9542   -2.9375    0.0000 C   0  0  0  0  0  0  0  0  0  0  0  0
    8.7792   -2.3167    0.0000 C   0  0  0  0  0  0  0  0  0  0  0  0
    2.0167   -0.8792    0.0000 C   0  0  0  0  0  0  0  0  0  0  0  0
   -0.9083    2.5000    0.0000 N   0  0  0  0  0  0  0  0  0  0  0  0
    3.0167    0.4333    0.0000 C   0  0  0  0  0  0  0  0  0  0  0  0
    4.1417   -0.5000    0.0000 N   0  0  0  0  0  0  0  0  0  0  0  0
   -0.9208    1.7250    0.0000 C   0  0  0  0  0  0  0  0  0  0  0  0
   -0.5083   -5.9917    0.0000 O   0  0  0  0  0  0  0  0  0  0  0  0
   -3.7958   -0.7417    0.0000 O   0  0  0  0  0  0  0  0  0  0  0  0
    6.9167    2.8125    0.0000 O   0  0  0  0  0  0  0  0  0  0  0  0
   10.6542    2.0958    0.0000 O   0  0  0  0  0  0  0  0  0  0  0  0
   11.6542    0.1583    0.0000 O   0  0  0  0  0  0  0  0  0  0  0  0
   -1.6250    2.9125    0.0000 C   0  0  0  0  0  0  0  0  0  0  0  0
   -4.4958    0.4958    0.0000 O   0  0  0  0  0  0  0  0  0  0  0  0
   -2.9958   -0.1375    0.0000 O   0  0  0  0  0  0  0  0  0  0  0  0
   11.3625    0.8500    0.0000 O   0  0  0  0  0  0  0  0  0  0  0  0
    9.8542    1.4833    0.0000 O   0  0  0  0  0  0  0  0  0  0  0  0
    6.0167    3.7500    0.0000 O   0  0  0  0  0  0  0  0  0  0  0  0
    4.9875    3.2208    0.0000 O   0  0  0  0  0  0  0  0  0  0  0  0
   12.3625   -1.0875    0.0000 O   0  0  0  0  0  0  0  0  0  0  0  0
   10.8542   -0.4542    0.0000 O   0  0  0  0  0  0  0  0  0  0  0  0
   -1.2250   -4.8417    0.0000 O   0  0  0  0  0  0  0  0  0  0  0  0
    0.3375   -5.5917    0.0000 O   0  0  0  0  0  0  0  0  0  0  0  0
    6.1125   -2.2917    0.0000 O   0  0  0  0  0  0  0  0  0  0  0  0
    8.9167   -4.1792    0.0000 O   0  0  0  0  0  0  0  0  0  0  0  0
    0.0542   -4.6250    0.0000 C   0  0  0  0  0  0  0  0  0  0  0  0
   -3.0708    0.4875    0.0000 C   0  0  0  0  0  0  0  0  0  0  0  0
    9.9292    0.8583    0.0000 C   0  0  0  0  0  0  0  0  0  0  0  0
    5.3917    2.3708    0.0000 C   0  0  0  0  0  0  0  0  0  0  0  0
   10.9292   -1.0792    0.0000 C   0  0  0  0  0  0  0  0  0  0  0  0
    1.9292    2.4083    0.0000 O   0  0  0  0  0  0  0  0  0  0  0  0
    3.8917   -4.1542    0.0000 O   0  0  0  0  0  0  0  0  0  0  0  0
    6.1417   -0.9042    0.0000 O   0  0  0  0  0  0  0  0  0  0  0  0
    7.5417   -2.2417    0.0000 O   0  0  0  0  0  0  0  0  0  0  0  0
    1.2750   -1.7167    0.0000 O   0  0  0  0  0  0  0  0  0  0  0  0
   -0.2083    0.4875    0.0000 O   0  0  0  0  0  0  0  0  0  0  0  0
    1.6500    0.9958    0.0000 O   0  0  0  0  0  0  0  0  0  0  0  0
    3.7375    0.8708    0.0000 O   0  0  0  0  0  0  0  0  0  0  0  0
    5.3292    1.0958    0.0000 C   0  0  0  0  0  0  0  0  0  0  0  0
    1.2042    2.5958    0.0000 C   0  0  0  0  0  0  0  0  0  0  0  0
   -1.6250    3.7375    0.0000 O   0  0  0  0  0  0  0  0  0  0  0  0
    5.4292   -4.2167    0.0000 C   0  0  0  0  0  0  0  0  0  0  0  0
    7.4542   -4.5292    0.0000 C   0  0  0  0  0  0  0  0  0  0  0  0
    2.6167   -0.4667    0.0000 C   0  0  0  0  0  0  0  0  0  0  0  0
    1.0542   -4.6250    0.0000 N   0  0  0  0  0  0  0  0  0  0  0  0
    4.1750    2.3708    0.0000 N   0  0  0  0  0  0  0  0  0  0  0  0
   -3.0625    1.3125    0.0000 N   0  0  0  0  0  0  0  0  0  0  0  0
   10.9292   -1.9042    0.0000 N   0  0  0  0  0  0  0  0  0  0  0  0
    9.9292    0.0333    0.0000 N   0  0  0  0  0  0  0  0  0  0  0  0
    3.3667   -0.9042    0.0000 C   0  0  0  0  0  0  0  0  0  0  0  0
    2.4542   -3.9042    0.0000 C   0  0  0  0  0  0  0  0  0  0  0  0
    8.5000    0.0333    0.0000 C   0  0  0  0  0  0  0  0  0  0  0  0
    9.5000   -1.9042    0.0000 C   0  0  0  0  0  0  0  0  0  0  0  0
    3.1792    1.5958    0.0000 C   0  0  0  0  0  0  0  0  0  0  0  0
   -1.6333    1.3125    0.0000 C   0  0  0  0  0  0  0  0  0  0  0  0
   11.8875    2.2583    0.0000 Na  0  0  0  0  0 15  0  0  0  0  0  0
   -5.0333   -1.0917    0.0000 Na  0  0  0  0  0 15  0  0  0  0  0  0
    8.3875    3.1250    0.0000 Na  0  0  0  0  0 15  0  0  0  0  0  0
   -1.8208   -6.0292    0.0000 Na  0  0  0  0  0 15  0  0  0  0  0  0
   12.8875    0.3208    0.0000 Na  0  0  0  0  0 15  0  0  0  0  0  0
    6.1125    1.3708    0.0000 O   0  0  0  0  0  0  0  0  0  0  0  0
    0.4542    2.9333    0.0000 O   0  0  0  0  0  0  0  0  0  0  0  0
   -2.3500    2.5500    0.0000 C   0  0  0  0  0  0  0  0  0  0  0  0
    1.4292   -3.9042    0.0000 C   0  0  0  0  0  0  0  0  0  0  0  0
   10.2042   -2.3167    0.0000 C   0  0  0  0  0  0  0  0  0  0  0  0
    9.2125   -0.3792    0.0000 C   0  0  0  0  0  0  0  0  0  0  0  0
    3.9250    1.6833    0.0000 C   0  0  0  0  0  0  0  0  0  0  0  0
   -2.3500    1.7250    0.0000 C   0  0  0  0  0  0  0  0  0  0  0  0
    8.0917   -5.0500    0.0000 C   0  0  0  0  0  0  0  0  0  0  0  0
    6.0917   -4.6042    0.0000 C   0  0  0  0  0  0  0  0  0  0  0  0
    4.6417    1.6208    0.0000 C   0  0  0  0  0  0  0  0  0  0  0  0
    1.8042    2.9958    0.0000 C   0  0  0  0  0  0  0  0  0  0  0  0
    4.7542   -4.5917    0.0000 C   0  0  0  0  0  0  0  0  0  0  0  0
    6.6792   -4.8292    0.0000 C   0  0  0  0  0  0  0  0  0  0  0  0
   -5.1958    2.5000    0.0000 C   0  0  0  0  0  0  0  0  0  0  0  0
   -3.0583    2.9125    0.0000 C   0  0  0  0  0  0  0  0  0  0  0  0
   -4.4833    2.9125    0.0000 C   0  0  0  0  0  0  0  0  0  0  0  0
   -3.7708    2.5000    0.0000 C   0  0  0  0  0  0  0  0  0  0  0  0
   -5.1958    1.6750    0.0000 C   0  0  0  0  0  0  0  0  0  0  0  0
   -5.9125    2.9125    0.0000 C   0  0  0  0  0  0  0  0  0  0  0  0
    7.9667   -5.8625    0.0000 C   0  0  0  0  0  0  0  0  0  0  0  0
    6.0875   -5.3792    0.0000 C   0  0  0  0  0  0  0  0  0  0  0  0
  2 23  1  0
  3 56  1  0
  4 58  1  0
  5 59  1  0
  6 57  1  0
  7 55  1  0
  8 19  1  0
  9  2  1  0
 10  1  1  0
 11 14  1  0
 12 13  1  0
 13 27  1  0
 14 31  1  0
 15 12  1  0
 16  1  1  0
 17 21  1  0
 18 29  1  0
 19 30  1  0
 20 18  1  0
 21 32  1  0
 22  9  1  0
 23 11  1  0
 24 15  1  0
 25 10  1  0
 26 28  1  0
 27 34  1  0
 28 32  1  0
 29 16  1  0
 30 17  1  0
 31 20  1  0
 32 73  1  0
 33 36  1  0
 34 26  1  0
 35 25  1  0
 36 24  1  0
 37  7  1  0
 38  3  1  0
 39  4  1  0
 40  6  1  0
 41  5  1  0
 42 33  1  0
 43  3  2  0
 44  3  2  0
 45  6  2  0
 46  6  2  0
 47  4  2  0
 48  4  2  0
 49  5  2  0
 50  5  2  0
 51  7  2  0
 52  7  2  0
 53  9  2  0
 54 11  2  0
 55 74  1  0
 56 76  1  0
 57 78  1  0
 58 75  1  0
 59 77  1  0
 60 13  2  0
 61 19  2  0
 62 16  2  0
 63 20  2  0
 64 21  2  0
 65 24  2  0
 66 26  2  0
 67 25  2  0
 68 10  1  0
 69 12  1  0
 70 42  2  0
 71 22  1  0
 72 23  1  0
 73 79  1  0
 74 93  1  0
 75 96  1  0
 76 97  1  0
 77 94  1  0
 78 95  1  0
 79 35  1  0
 80 30  1  0
 81 29  1  0
 82 31  1  0
 83 34  1  0
 84 36  1  0
 90 68  1  0
 91 69  1  0
 92 42  1  0
 93 80  1  0
 94 82  1  0
 95 81  1  0
 96 83  1  0
 97 84  1  0
 98 72  1  0
 99 71  1  0
100 68  1  0
101 69  1  0
102 71  1  0
103 72  1  0
104106  1  0
105 92  1  0
106107  1  0
107105  1  0
108104  1  0
109104  1  0
110 98  1  0
111 99  1  0
 22  8  1  0
M  CHG  8  37  -1  38  -1  39  -1  40  -1  41  -1  85   1  86   1  87   1
M  CHG  2  88   1  89   1
M  END
>  <ID>  (340) 


>  <MOLENAME>  (340) 
COLISTIMETHATE SODIUM

>  <therap>  (340) 
antibacterial

>  <ref>  (340) 
Brit.J.Pharmacol.Chemother. 23: 552 (1964)

>  <cas#>  (340) 
8068-28-8, 21362-08-3 [replaced]

>  <source>  (340) 
Bacillus colistinus

>  <status>  (340) 
USP, INN, BAN, JAN

>  <tradename>  (340) 
COLOMYCIN

>  <SMILES>  (340) 
CCC(C)C1NC(=O)C(CCNCS(=O)(=O)O)NC(=O)C(NC(=O)C(CCNCS(=O)(=O)O)NC(=O)C(NC(=O)C(CCNCS(=O)(=O)O)NC(=O)CCCCC(C)C)C(C)O)CCNC(=O)C(C(C)O)NC(=O)C(CCNCS(=O)(=O)O)NC(=O)C(CCNCS(=O)(=O)O)NC(=O)C(C(C)CC)NC1=O

>  <standardized_failed>  (340) 
False

$$$$

     RDKit          2D

 29 32  0  0  0  0  0  0  0  0999 V2000
    7.0917   -4.0500    0.0000 C   0  0  0  0  0  0  0  0  0  0  0  0
    4.9500   -5.2917    0.0000 C   0  0  0  0  0  0  0  0  0  0  0  0
    7.8792   -3.7917    0.0000 C   0  0  0  0  0  0  0  0  0  0  0  0
    5.6625   -4.8792    0.0000 C   0  0  0  0  0  0  0  0  0  0  0  0
    6.3792   -5.2917    0.0000 C   0  0  0  0  0  0  0  0  0  0  0  0
    7.0917   -4.8792    0.0000 C   0  0  0  0  0  0  0  0  0  0  0  0
    5.6625   -4.0500    0.0000 C   0  0  0  0  0  0  0  0  0  0  0  0
    4.9500   -6.1167    0.0000 C   0  0  0  0  0  0  0  0  0  0  0  0
    6.3750   -3.6375    0.0000 C   0  0  0  0  0  0  0  0  0  0  0  0
    8.2167   -3.0417    0.0000 C   0  0  0  0  0  0  0  0  0  0  0  0
    4.2375   -6.5292    0.0000 C   0  0  0  0  0  0  0  0  0  0  0  0
    8.3625   -4.4625    0.0000 C   0  0  0  0  0  0  0  0  0  0  0  0
    7.8792   -5.1292    0.0000 C   0  0  0  0  0  0  0  0  0  0  0  0
    6.3792   -6.1167    0.0000 C   0  0  0  0  0  0  0  0  0  0  0  0
    4.2375   -4.8792    0.0000 C   0  0  0  0  0  0  0  0  0  0  0  0
    5.6625   -6.5292    0.0000 C   0  0  0  0  0  0  0  0  0  0  0  0
    3.5167   -6.1167    0.0000 C   0  0  0  0  0  0  0  0  0  0  0  0
    6.4167   -1.7875    0.0000 C   0  0  0  0  0  0  0  0  0  0  0  0
    4.9417   -3.6250    0.0000 O   0  0  0  0  0  0  0  0  0  0  0  0
    7.7292   -2.3667    0.0000 C   0  0  0  0  0  0  0  0  0  0  0  0
    9.0375   -2.9542    0.0000 O   0  0  0  0  0  0  0  0  0  0  0  0
    6.9042   -2.4542    0.0000 O   0  0  0  0  0  0  0  0  0  0  0  0
    5.6000   -1.8750    0.0000 O   0  0  0  0  0  0  0  0  0  0  0  0
    2.8000   -6.5375    0.0000 O   0  0  0  0  0  0  0  0  0  0  0  0
    8.7292   -3.8042    0.0000 O   0  0  0  0  0  0  0  0  0  0  0  0
    6.9667   -3.2292    0.0000 C   0  0  0  0  0  0  0  0  0  0  0  0
    3.5167   -5.2917    0.0000 C   0  0  0  0  0  0  0  0  0  0  0  0
    4.9500   -4.4625    0.0000 C   0  0  0  0  0  0  0  0  0  0  0  0
    6.7542   -1.0292    0.0000 C   0  0  0  0  0  0  0  0  0  0  0  0
  2  4  1  0
  3  1  1  0
  4  7  1  0
  5  6  1  0
  6  1  1  0
  7  9  1  0
  8  2  1  0
  9  1  1  0
  3 10  1  0
 11  8  2  0
 12  3  1  0
 13  6  1  0
 14  5  1  0
 15  2  1  0
 16 14  1  0
 17 27  1  0
 18 22  1  0
 19  7  2  0
 20 10  1  0
 21 10  2  0
 22 20  1  0
 23 18  2  0
 24 17  2  0
  3 25  1  6
  1 26  1  1
 27 15  1  0
  2 28  1  1
 29 18  1  0
 12 13  1  0
  4  5  1  0
 16  8  1  0
 11 17  1  0
M  END
>  <ID>  (341) 


>  <MOLENAME>  (341) 
CORTISONE ACETATE

>  <therap>  (341) 
glucocorticoid

>  <ref>  (341) 
J Biol Chem 162:630 (1946)

>  <cas#>  (341) 
50-04-4, 53-06-5 [cortisone]

>  <source>  (341) 
semisynthetic

>  <status>  (341) 
USP, INN, BAN, JAN

>  <tradename>  (341) 
CORTONE

>  <SMILES>  (341) 
CC(=O)OCC(=O)[C@@]1(O)CCC2C3CCC4=CC(=O)CC[C@]4(C)C3C(=O)C[C@@]21C

>  <standardized_failed>  (341) 
False

$$$$

     RDKit          2D

 13 14  0  0  0  0  0  0  0  0999 V2000
    2.5542   -1.2292    0.0000 N   0  0  0  0  0  0  0  0  0  0  0  0
    1.8500   -1.6375    0.0000 C   0  0  0  0  0  0  0  0  0  0  0  0
    3.1750   -1.7875    0.0000 C   0  0  0  0  0  0  0  0  0  0  0  0
    2.0250   -2.4500    0.0000 C   0  0  0  0  0  0  0  0  0  0  0  0
    1.2292   -1.0792    0.0000 C   0  0  0  0  0  0  0  0  0  0  0  0
    2.8375   -2.5292    0.0000 C   0  0  0  0  0  0  0  0  0  0  0  0
    3.9875   -1.6375    0.0000 O   0  0  0  0  0  0  0  0  0  0  0  0
    0.5167    0.1625    0.0000 N   0  0  0  0  0  0  0  0  0  0  0  0
    2.6292   -0.4042    0.0000 C   0  0  0  0  0  0  0  0  0  0  0  0
    1.2292   -0.2500    0.0000 C   0  0  0  0  0  0  0  0  0  0  0  0
    0.5167   -1.4917    0.0000 C   0  0  0  0  0  0  0  0  0  0  0  0
   -0.2000   -0.2500    0.0000 C   0  0  0  0  0  0  0  0  0  0  0  0
   -0.2000   -1.0792    0.0000 C   0  0  0  0  0  0  0  0  0  0  0  0
  2  1  1  0
  3  1  1  0
  2  4  1  1
  5  2  1  0
  6  3  1  0
  7  3  2  0
  8 10  2  0
  9  1  1  0
 10  5  1  0
 11  5  2  0
 12 13  2  0
 13 11  1  0
  6  4  1  0
 12  8  1  0
M  END
>  <ID>  (342) 


>  <MOLENAME>  (342) 
COTININE

>  <therap>  (342) 
antidepressant

>  <ref>  (342) 
JACS 79: 149 (1957)

>  <cas#>  (342) 
486-56-6, 5695-98-7[fumarate]

>  <source>  (342) 
Nicotiana tabacum

>  <status>  (342) 
USAN, INN

>  <tradename>  (342) 
nan

>  <SMILES>  (342) 
CN1C(=O)CC[C@H]1c1cccnc1

>  <standardized_failed>  (342) 
False

$$$$

     RDKit          2D

 35 37  0  0  0  0  0  0  0  0999 V2000
    4.6750   -1.2292    0.0000 N   0  0  0  0  0  0  0  0  0  0  0  0
    4.6750   -0.4042    0.0000 C   0  0  0  0  0  0  0  0  0  0  0  0
    1.8250   -3.7042    0.0000 S   0  0  0  0  0  0  0  0  0  0  0  0
    3.9542   -1.6417    0.0000 N   0  0  0  0  0  0  0  0  0  0  0  0
    3.2417   -1.2292    0.0000 C   0  0  0  0  0  0  0  0  0  0  0  0
    3.9542    0.0083    0.0000 C   0  0  0  0  0  0  0  0  0  0  0  0
    3.2417   -0.4042    0.0000 N   0  0  0  0  0  0  0  0  0  0  0  0
    5.9417   -0.8167    0.0000 N   0  0  0  0  0  0  0  0  0  0  0  0
    5.4542   -0.1417    0.0000 C   0  0  0  0  0  0  0  0  0  0  0  0
    5.4542   -1.4792    0.0000 C   0  0  0  0  0  0  0  0  0  0  0  0
    2.5292   -1.6417    0.0000 C   0  0  0  0  0  0  0  0  0  0  0  0
    1.1042   -4.1125    0.0000 N   0  0  0  0  0  0  0  0  0  0  0  0
    1.8167   -2.8792    0.0000 C   0  0  0  0  0  0  0  0  0  0  0  0
    2.5292   -2.4667    0.0000 C   0  0  0  0  0  0  0  0  0  0  0  0
    2.2292   -4.4167    0.0000 O   0  0  0  0  0  0  0  0  0  0  0  0
    2.6500   -3.7042    0.0000 O   0  0  0  0  0  0  0  0  0  0  0  0
   -0.3333   -4.9125    0.0000 N   0  0  0  0  0  0  0  0  0  0  0  0
    0.3917   -3.6875    0.0000 C   0  0  0  0  0  0  0  0  0  0  0  0
    1.1000   -4.9292    0.0000 C   0  0  0  0  0  0  0  0  0  0  0  0
    1.8167   -1.2292    0.0000 C   0  0  0  0  0  0  0  0  0  0  0  0
    3.9542    0.8333    0.0000 O   0  0  0  0  0  0  0  0  0  0  0  0
    1.1042   -2.4667    0.0000 C   0  0  0  0  0  0  0  0  0  0  0  0
    1.1042   -1.6417    0.0000 C   0  0  0  0  0  0  0  0  0  0  0  0
   -0.3208   -4.0917    0.0000 C   0  0  0  0  0  0  0  0  0  0  0  0
    0.3792   -5.3375    0.0000 C   0  0  0  0  0  0  0  0  0  0  0  0
    5.7125    0.6375    0.0000 C   0  0  0  0  0  0  0  0  0  0  0  0
    5.7167   -2.2667    0.0000 C   0  0  0  0  0  0  0  0  0  0  0  0
    7.4292   -0.4292    0.0000 Cl  0  0  0  0  0  0  0  0  0  0  0  0
    1.8167   -0.4042    0.0000 O   0  0  0  0  0  0  0  0  0  0  0  0
   -1.0500   -5.3167    0.0000 C   0  0  0  0  0  0  0  0  0  0  0  0
    1.1042    0.0083    0.0000 C   0  0  0  0  0  0  0  0  0  0  0  0
    6.5167   -2.4417    0.0000 C   0  0  0  0  0  0  0  0  0  0  0  0
   -1.7583   -4.8917    0.0000 C   0  0  0  0  0  0  0  0  0  0  0  0
    1.1042    0.8333    0.0000 C   0  0  0  0  0  0  0  0  0  0  0  0
    6.7792   -3.2250    0.0000 C   0  0  0  0  0  0  0  0  0  0  0  0
  2  1  1  0
  3 13  1  0
  4  1  1  0
  5  4  2  0
  6  2  1  0
  7  5  1  0
  8 10  2  0
  9  2  2  0
 10  1  1  0
 11  5  1  0
 12  3  1  0
 13 14  2  0
 14 11  1  0
 15  3  2  0
 16  3  2  0
 17 25  1  0
 18 12  1  0
 19 12  1  0
 20 11  2  0
 21  6  2  0
 22 23  2  0
 23 20  1  0
 24 18  1  0
 25 19  1  0
 26  9  1  0
 27 10  1  0
 29 20  1  0
 30 17  1  0
 31 29  1  0
 32 27  1  0
 33 30  1  0
 34 31  1  0
 35 32  1  0
  9  8  1  0
  7  6  1  0
 22 13  1  0
 17 24  1  0
M  END
>  <ID>  (343) 


>  <MOLENAME>  (343) 
VARDENAFIL HYDROCHLORIDE

>  <therap>  (343) 
erectile dysfunction, PD5 inhibitor

>  <ref>  (343) 
Int J Impotency Res 16:470 (2004); Expert Opin Pharmacother 5:923 (2004)

>  <cas#>  (343) 
224789-15-5

>  <source>  (343) 
synthetic

>  <status>  (343) 
USAN, INN, BAN

>  <tradename>  (343) 
LEVITRA

>  <SMILES>  (343) 
CCCc1nc(C)c2c(=O)[nH]c(-c3c(OCC)ccc(S(=O)(=O)N4CCN(CC)CC4)c3)nn12

>  <standardized_failed>  (343) 
False

$$$$

     RDKit          2D

 36 37  0  0  0  0  0  0  0  0999 V2000
    2.9792   -1.2917    0.0000 C   0  0  0  0  0  0  0  0  0  0  0  0
    6.7042   -3.4292    0.0000 C   0  0  0  0  0  0  0  0  0  0  0  0
    1.7417   -0.5792    0.0000 C   0  0  0  0  0  0  0  0  0  0  0  0
    7.9542   -4.1417    0.0000 C   0  0  0  0  0  0  0  0  0  0  0  0
    3.3917   -0.5750    0.0000 C   0  0  0  0  0  0  0  0  0  0  0  0
    7.1167   -2.7125    0.0000 C   0  0  0  0  0  0  0  0  0  0  0  0
    7.1250   -4.1417    0.0000 C   0  0  0  0  0  0  0  0  0  0  0  0
    2.1542   -1.2917    0.0000 C   0  0  0  0  0  0  0  0  0  0  0  0
    2.1542    0.1375    0.0000 O   0  0  0  0  0  0  0  0  0  0  0  0
    8.3625   -3.4250    0.0000 O   0  0  0  0  0  0  0  0  0  0  0  0
    2.9792    0.1375    0.0000 C   0  0  0  0  0  0  0  0  0  0  0  0
    7.9417   -2.7042    0.0000 C   0  0  0  0  0  0  0  0  0  0  0  0
    8.3750   -4.8500    0.0000 C   0  0  0  0  0  0  0  0  0  0  0  0
    0.9042   -0.5792    0.0000 C   0  0  0  0  0  0  0  0  0  0  0  0
    4.2167   -0.5750    0.0000 C   0  0  0  0  0  0  0  0  0  0  0  0
    6.7042   -1.9917    0.0000 C   0  0  0  0  0  0  0  0  0  0  0  0
    5.8750   -3.4250    0.0000 O   0  0  0  0  0  0  0  0  0  0  0  0
    3.4000   -2.0042    0.0000 O   0  0  0  0  0  0  0  0  0  0  0  0
    0.4917    0.1458    0.0000 O   0  0  0  0  0  0  0  0  0  0  0  0
    9.2042   -4.8417    0.0000 O   0  0  0  0  0  0  0  0  0  0  0  0
    4.6292   -1.2875    0.0000 O   0  0  0  0  0  0  0  0  0  0  0  0
    5.8792   -1.9917    0.0000 O   0  0  0  0  0  0  0  0  0  0  0  0
    0.5000   -1.2917    0.0000 O   0  0  0  0  0  0  0  0  0  0  0  0
    7.9667   -5.5667    0.0000 O   0  0  0  0  0  0  0  0  0  0  0  0
    4.6417   -2.7167    0.0000 C   0  0  0  0  0  0  0  0  0  0  0  0
    4.2250   -2.0000    0.0000 C   0  0  0  0  0  0  0  0  0  0  0  0
    5.4667   -2.7167    0.0000 C   0  0  0  0  0  0  0  0  0  0  0  0
    8.3542   -1.9917    0.0000 C   0  0  0  0  0  0  0  0  0  0  0  0
    3.3875    0.8583    0.0000 C   0  0  0  0  0  0  0  0  0  0  0  0
    9.7292   -3.9292    0.0000 Na  0  0  0  0  0 15  0  0  0  0  0  0
   -0.8833   -0.9042    0.0000 Na  0  0  0  0  0 15  0  0  0  0  0  0
    4.2292   -3.4292    0.0000 O   0  0  0  0  0  0  0  0  0  0  0  0
    4.2125    0.8583    0.0000 C   0  0  0  0  0  0  0  0  0  0  0  0
    7.9417   -1.2750    0.0000 C   0  0  0  0  0  0  0  0  0  0  0  0
    4.6292    0.1458    0.0000 C   0  0  0  0  0  0  0  0  0  0  0  0
    7.1125   -1.2792    0.0000 C   0  0  0  0  0  0  0  0  0  0  0  0
  2  6  1  0
  3  8  2  0
  4 10  1  0
  5  1  1  0
  6 16  2  0
  7  2  1  0
  8  1  1  0
  9  3  1  0
 10 12  1  0
 11  5  2  0
 12  6  1  0
 13  4  1  0
 14  3  1  0
 15  5  1  0
 16 22  1  0
 17  2  2  0
 18  1  2  0
 19 14  1  0
 20 13  1  0
 21 15  1  0
 22 27  1  0
 23 14  2  0
 24 13  2  0
 25 26  1  0
 26 21  1  0
 27 25  1  0
 28 34  1  0
 29 11  1  0
 32 25  1  0
 33 35  1  0
 34 36  2  0
 35 15  2  0
 36 16  1  0
  9 11  1  0
 29 33  2  0
 28 12  2  0
  4  7  2  0
M  CHG  4  19  -1  20  -1  30   1  31   1
M  END
>  <ID>  (344) 


>  <MOLENAME>  (344) 
CROMOLYN SODIUM

>  <therap>  (344) 
antiasthmatic, antiallergy

>  <ref>  (344) 
Toxicol Appl Pharmacol 26:319 (1973); 57:367 (1981); Pharmacotherapy 5:156 (1985)

>  <cas#>  (344) 
15826-37-6, 16110-51-3 [cromolyn]

>  <source>  (344) 
synthetic; FPL-670

>  <status>  (344) 
USP, INN, BAN, JAN

>  <tradename>  (344) 
INTAL

>  <SMILES>  (344) 
O=C(O)c1cc(=O)c2c(cccc2OCC(O)COc2c3c(=O)cc(C(=O)O)oc3ccc2)o1

>  <standardized_failed>  (344) 
False

$$$$

     RDKit          2D

 20 22  0  0  0  0  0  0  0  0999 V2000
    2.8667   -0.4125    0.0000 N   0  0  0  0  0  0  0  0  0  0  0  0
    2.0417   -0.4125    0.0000 C   0  0  0  0  0  0  0  0  0  0  0  0
    4.5167   -0.4125    0.0000 N   0  0  0  0  0  0  0  0  0  0  0  0
    3.2792    0.3000    0.0000 C   0  0  0  0  0  0  0  0  0  0  0  0
    3.2792   -1.1250    0.0000 C   0  0  0  0  0  0  0  0  0  0  0  0
    1.6292   -1.1292    0.0000 C   0  0  0  0  0  0  0  0  0  0  0  0
    1.6292    0.3000    0.0000 C   0  0  0  0  0  0  0  0  0  0  0  0
    4.1042    0.3000    0.0000 C   0  0  0  0  0  0  0  0  0  0  0  0
    4.1042   -1.1250    0.0000 C   0  0  0  0  0  0  0  0  0  0  0  0
    5.3417   -0.4125    0.0000 C   0  0  0  0  0  0  0  0  0  0  0  0
    0.7917    0.3000    0.0000 C   0  0  0  0  0  0  0  0  0  0  0  0
    2.0417    1.0125    0.0000 C   0  0  0  0  0  0  0  0  0  0  0  0
    0.7917   -1.1292    0.0000 C   0  0  0  0  0  0  0  0  0  0  0  0
    2.0417   -1.8500    0.0000 C   0  0  0  0  0  0  0  0  0  0  0  0
    0.3792    1.0125    0.0000 C   0  0  0  0  0  0  0  0  0  0  0  0
    0.3792   -1.8417    0.0000 C   0  0  0  0  0  0  0  0  0  0  0  0
    1.6292   -2.5625    0.0000 C   0  0  0  0  0  0  0  0  0  0  0  0
    1.6292    1.7250    0.0000 C   0  0  0  0  0  0  0  0  0  0  0  0
    0.7917    1.7250    0.0000 C   0  0  0  0  0  0  0  0  0  0  0  0
    0.7917   -2.5625    0.0000 C   0  0  0  0  0  0  0  0  0  0  0  0
  2  1  1  0
  3  9  1  0
  4  1  1  0
  5  1  1  0
  6  2  1  0
  7  2  1  0
  8  4  1  0
  9  5  1  0
 10  3  1  0
 11  7  2  0
 12  7  1  0
 13  6  2  0
 14  6  1  0
 15 11  1  0
 16 13  1  0
 17 14  2  0
 18 12  2  0
 19 18  1  0
 20 17  1  0
  3  8  1  0
 15 19  2  0
 16 20  2  0
M  END
>  <ID>  (345) 


>  <MOLENAME>  (345) 
CYCLIZINE

>  <therap>  (345) 
H1 antihistamine

>  <ref>  (345) 
Br J Clin Pract 30:197 (1976); Eur J Anesthesiol 3:27 (1986)

>  <cas#>  (345) 
82-92-8

>  <source>  (345) 
synthetic

>  <status>  (345) 
USP, BAN

>  <tradename>  (345) 
nan

>  <SMILES>  (345) 
CN1CCN(C(c2ccccc2)c2ccccc2)CC1

>  <standardized_failed>  (345) 
False

$$$$

     RDKit          2D

 22 22  0  0  0  0  0  0  0  0999 V2000
    4.6375   -3.3250    0.0000 C   0  0  0  0  0  0  0  0  0  0  0  0
    5.3625   -3.1292    0.0000 C   0  0  0  0  0  0  0  0  0  0  0  0
    4.1125   -2.8000    0.0000 C   0  0  0  0  0  0  0  0  0  0  0  0
    4.4417   -4.0542    0.0000 C   0  0  0  0  0  0  0  0  0  0  0  0
    5.5542   -2.4125    0.0000 O   0  0  0  0  0  0  0  0  0  0  0  0
    5.8917   -3.6625    0.0000 O   0  0  0  0  0  0  0  0  0  0  0  0
    4.7625   -2.5667    0.0000 O   0  0  0  0  0  0  0  0  0  0  0  0
    7.8500   -3.8042    0.0000 N   0  0  0  0  0  0  0  0  0  0  0  0
    7.3250   -5.8042    0.0000 Cl  0  0  0  0  0  0  0  0  0  0  0  0
    6.6125   -3.4667    0.0000 C   0  0  0  0  0  0  0  0  0  0  0  0
    4.3000   -2.0792    0.0000 C   0  0  0  0  0  0  0  0  0  0  0  0
    3.3625   -2.8375    0.0000 C   0  0  0  0  0  0  0  0  0  0  0  0
    7.1375   -4.0000    0.0000 C   0  0  0  0  0  0  0  0  0  0  0  0
    4.9667   -4.5875    0.0000 C   0  0  0  0  0  0  0  0  0  0  0  0
    3.7250   -4.2500    0.0000 C   0  0  0  0  0  0  0  0  0  0  0  0
    8.3750   -4.3375    0.0000 C   0  0  0  0  0  0  0  0  0  0  0  0
    8.0417   -3.0875    0.0000 C   0  0  0  0  0  0  0  0  0  0  0  0
    3.6750   -1.6792    0.0000 C   0  0  0  0  0  0  0  0  0  0  0  0
    3.1000   -2.1375    0.0000 C   0  0  0  0  0  0  0  0  0  0  0  0
    3.5250   -4.9667    0.0000 C   0  0  0  0  0  0  0  0  0  0  0  0
    4.7750   -5.3000    0.0000 C   0  0  0  0  0  0  0  0  0  0  0  0
    4.0500   -5.5000    0.0000 C   0  0  0  0  0  0  0  0  0  0  0  0
  2  1  1  0
  3  1  1  0
  4  1  1  0
  5  2  2  0
  6  2  1  0
  7  3  1  0
  8 13  1  0
 10  6  1  0
 11  3  1  0
 12  3  1  0
 13 10  1  0
 14  4  2  0
 15  4  1  0
 16  8  1  0
 17  8  1  0
 18 11  1  0
 19 12  1  0
 20 15  2  0
 21 14  1  0
 22 21  2  0
 19 18  1  0
 20 22  1  0
M  END
>  <ID>  (346) 


>  <MOLENAME>  (346) 
CYCLOPENTOLATE HYDROCHLORIDE

>  <therap>  (346) 
mydriatic

>  <ref>  (346) 
Neuropharmacology (1977), 16(12), 833-9; J. Pharmacol. Exp. Ther. (1958), 123, 230-7; Acta ophthalmol. (1976), 54(4), 456-72

>  <cas#>  (346) 
5870-29-1, 512-15-2 [cyclopentolate]

>  <source>  (346) 
synthetic

>  <status>  (346) 
USP, INN, BAN, JAN

>  <tradename>  (346) 
ALPENTOLATE

>  <SMILES>  (346) 
CN(C)CCOC(=O)C(c1ccccc1)C1(O)CCCC1

>  <standardized_failed>  (346) 
False

$$$$

     RDKit          2D

 15 14  0  0  0  0  0  0  0  0999 V2000
    5.4417   -4.6625    0.0000 P   0  0  0  0  0  0  0  0  0  0  0  0
    6.0292   -5.2500    0.0000 N   0  0  0  0  0  0  0  0  0  0  0  0
    6.0292   -4.0792    0.0000 N   0  0  0  0  0  0  0  0  0  0  0  0
    4.6500   -4.8750    0.0000 O   0  0  0  0  0  0  0  0  0  0  0  0
    5.1000   -3.9042    0.0000 O   0  0  0  0  0  0  0  0  0  0  0  0
    5.8167   -3.2792    0.0000 C   0  0  0  0  0  0  0  0  0  0  0  0
    6.8167   -4.2917    0.0000 C   0  0  0  0  0  0  0  0  0  0  0  0
    6.2000   -1.9042    0.0000 Cl  0  0  0  0  0  0  0  0  0  0  0  0
    7.8250   -5.3042    0.0000 Cl  0  0  0  0  0  0  0  0  0  0  0  0
    5.8167   -6.0292    0.0000 C   0  0  0  0  0  0  0  0  0  0  0  0
    5.0125   -6.2542    0.0000 C   0  0  0  0  0  0  0  0  0  0  0  0
    4.4292   -5.6667    0.0000 C   0  0  0  0  0  0  0  0  0  0  0  0
    3.4250   -4.0875    0.0000 O   0  0  0  0  0  0  0  0  0  0  0  0
    7.0292   -5.0917    0.0000 C   0  0  0  0  0  0  0  0  0  0  0  0
    6.4042   -2.6917    0.0000 C   0  0  0  0  0  0  0  0  0  0  0  0
  2  1  1  0
  3  1  1  0
  4  1  1  0
  5  1  2  0
  6  3  1  0
  7  3  1  0
  8 15  1  0
  9 14  1  0
 10  2  1  0
 11 12  1  0
 12  4  1  0
 14  7  1  0
 15  6  1  0
 10 11  1  0
M  END
>  <ID>  (347) 


>  <MOLENAME>  (347) 
CYCLOPHOSPHAMIDE

>  <therap>  (347) 
antineoplastic, alkylating agent

>  <ref>  (347) 
J. Pharm. Res. (2011), 4(8), 2755-2757; Oncologia (1965), 19(4), 285-93; Nature (1965), 205, 479-81

>  <cas#>  (347) 
6055-19-2, 50-18-0 [anhydrous]

>  <source>  (347) 
synthetic; NSC-26271

>  <status>  (347) 
USP, INN, BAN, JAN

>  <tradename>  (347) 
CYTOXAN

>  <SMILES>  (347) 
O=P1(N(CCCl)CCCl)NCCCO1

>  <standardized_failed>  (347) 
False

$$$$

     RDKit          2D

  7  7  0  0  0  0  0  0  0  0999 V2000
    6.8375   -3.8167    0.0000 C   0  0  0  0  0  0  0  0  0  0  0  0
    6.8375   -2.9917    0.0000 C   0  0  0  0  0  0  0  0  0  0  0  0
    7.6167   -4.0667    0.0000 N   0  0  0  0  0  0  0  0  0  0  0  0
    8.1042   -3.4042    0.0000 O   0  0  0  0  0  0  0  0  0  0  0  0
    6.1667   -4.3042    0.0000 O   0  0  0  0  0  0  0  0  0  0  0  0
    7.6167   -2.7417    0.0000 C   0  0  0  0  0  0  0  0  0  0  0  0
    6.1667   -2.5042    0.0000 N   0  0  0  0  0  0  0  0  0  0  0  0
  2  1  1  0
  3  1  1  0
  4  3  1  0
  5  1  2  0
  6  2  1  0
  2  7  1  6
  6  4  1  0
M  END
>  <ID>  (348) 


>  <MOLENAME>  (348) 
CYCLOSERINE (D)

>  <therap>  (348) 
antibacterial (tuberculostatic)

>  <ref>  (348) 
J. Bacteriol. (1970), 103(3), 778-88; Biochem. Biophys. Res. Comm. (1962), 8377-82; CNS Drug Rev. (1995), 1(1), 74-90

>  <cas#>  (348) 
68-41-7

>  <source>  (348) 
Streptomyces spp

>  <status>  (348) 
USP, INN, BAN, JAN

>  <tradename>  (348) 
SEROMYCIN

>  <SMILES>  (348) 
N[C@@H]1CONC1=O

>  <standardized_failed>  (348) 
False

$$$$

     RDKit          2D

 14 14  0  0  0  0  0  0  0  0999 V2000
    3.9500   -3.1125    0.0000 C   0  0  0  0  0  0  0  0  0  0  0  0
    3.2375   -3.5250    0.0000 C   0  0  0  0  0  0  0  0  0  0  0  0
    3.9667   -2.2417    0.0000 O   0  0  0  0  0  0  0  0  0  0  0  0
    3.2375   -4.3542    0.0000 C   0  0  0  0  0  0  0  0  0  0  0  0
    2.5167   -3.1125    0.0000 C   0  0  0  0  0  0  0  0  0  0  0  0
    4.6625   -3.5167    0.0000 O   0  0  0  0  0  0  0  0  0  0  0  0
    1.8042   -4.3542    0.0000 C   0  0  0  0  0  0  0  0  0  0  0  0
    1.8042   -3.5250    0.0000 C   0  0  0  0  0  0  0  0  0  0  0  0
    2.5167   -4.7667    0.0000 C   0  0  0  0  0  0  0  0  0  0  0  0
    1.0917   -4.7667    0.0000 O   0  0  0  0  0  0  0  0  0  0  0  0
    5.3750   -3.1042    0.0000 C   0  0  0  0  0  0  0  0  0  0  0  0
    6.0875   -3.5167    0.0000 C   0  0  0  0  0  0  0  0  0  0  0  0
    6.8000   -3.1042    0.0000 C   0  0  0  0  0  0  0  0  0  0  0  0
    7.5125   -3.5125    0.0000 C   0  0  0  0  0  0  0  0  0  0  0  0
  2  1  1  0
  3  1  2  0
  4  2  2  0
  5  2  1  0
  6  1  1  0
  7  8  1  0
  8  5  2  0
  9  4  1  0
 10  7  1  0
 11  6  1  0
 12 11  1  0
 13 12  1  0
 14 13  1  0
  9  7  2  0
M  END
>  <ID>  (349) 


>  <MOLENAME>  (349) 
BUTYL PARABEN

>  <therap>  (349) 
antifungal, preservative

>  <ref>  (349) 
J Am Coll Toxicol 3:147 (1984); Clin Chim Acta 224:147 (1994); J Appl Toxicol 23:285 (2003)

>  <cas#>  (349) 
94-26-8

>  <source>  (349) 
synthetic

>  <status>  (349) 
USAN, NF, BAN

>  <tradename>  (349) 
nan

>  <SMILES>  (349) 
CCCCOC(=O)c1ccc(O)cc1

>  <standardized_failed>  (349) 
False

$$$$

     RDKit          2D

 17 18  0  0  0  0  0  0  0  0999 V2000
    3.7042   -0.4292    0.0000 N   0  0  0  0  0  0  0  0  0  0  0  0
    3.7042   -1.2542    0.0000 C   0  0  0  0  0  0  0  0  0  0  0  0
    2.9917   -0.0167    0.0000 C   0  0  0  0  0  0  0  0  0  0  0  0
    2.9917    0.8208    0.0000 N   0  0  0  0  0  0  0  0  0  0  0  0
    4.3750   -1.7292    0.0000 C   0  0  0  0  0  0  0  0  0  0  0  0
    3.0417   -1.7417    0.0000 O   0  0  0  0  0  0  0  0  0  0  0  0
    4.4292   -0.0167    0.0000 C   0  0  0  0  0  0  0  0  0  0  0  0
    4.1292   -2.5042    0.0000 C   0  0  0  0  0  0  0  0  0  0  0  0
    3.3125   -2.5250    0.0000 C   0  0  0  0  0  0  0  0  0  0  0  0
    4.4292    0.8208    0.0000 C   0  0  0  0  0  0  0  0  0  0  0  0
    3.7042    1.2333    0.0000 C   0  0  0  0  0  0  0  0  0  0  0  0
    2.2792   -0.4292    0.0000 O   0  0  0  0  0  0  0  0  0  0  0  0
    5.1625   -1.4542    0.0000 O   0  0  0  0  0  0  0  0  0  0  0  0
    3.7042    2.0583    0.0000 N   0  0  0  0  0  0  0  0  0  0  0  0
    4.6292   -3.1792    0.0000 O   0  0  0  0  0  0  0  0  0  0  0  0
    2.8417   -3.2125    0.0000 C   0  0  0  0  0  0  0  0  0  0  0  0
    2.0167   -3.1625    0.0000 O   0  0  0  0  0  0  0  0  0  0  0  0
  2  1  1  0
  3  1  1  0
  4  3  1  0
  5  2  1  0
  6  2  1  0
  7  1  1  0
  8  5  1  0
  9  6  1  0
 10  7  2  0
 11 10  1  0
 12  3  2  0
  5 13  1  1
 14 11  1  0
  8 15  1  6
  9 16  1  1
 17 16  1  0
 11  4  2  0
  8  9  1  0
M  END
>  <ID>  (350) 


>  <MOLENAME>  (350) 
CYTARABINE

>  <therap>  (350) 
antineoplastic, antiviral, antimetabolite

>  <ref>  (350) 
Cancer Treat Rep 70:1059 (1986); Adv Cancer Res 72:197 (1998); J Biol Chem 278:12461 (2003)

>  <cas#>  (350) 
147-94-4

>  <source>  (350) 
synthetic; CHX-3311

>  <status>  (350) 
USP, INN, BAN, JAN

>  <tradename>  (350) 
DEPOCYT

>  <SMILES>  (350) 
Nc1nc(=O)n(C2O[C@H](CO)[C@@H](O)[C@@H]2O)cc1

>  <standardized_failed>  (350) 
False

$$$$

     RDKit          2D

 22 25  0  0  0  0  0  0  0  0999 V2000
    2.7167   -1.9417    0.0000 C   0  0  0  0  0  0  0  0  0  0  0  0
    1.9542   -1.9667    0.0000 N   0  0  0  0  0  0  0  0  0  0  0  0
    3.1667   -2.5167    0.0000 C   0  0  0  0  0  0  0  0  0  0  0  0
    3.0042   -3.1167    0.0000 C   0  0  0  0  0  0  0  0  0  0  0  0
    2.3500   -3.4875    0.0000 O   0  0  0  0  0  0  0  0  0  0  0  0
    3.0292   -1.2625    0.0000 N   0  0  0  0  0  0  0  0  0  0  0  0
    1.4917   -2.6000    0.0000 C   0  0  0  0  0  0  0  0  0  0  0  0
    1.7292   -3.2917    0.0000 C   0  0  0  0  0  0  0  0  0  0  0  0
    3.7792   -2.3542    0.0000 C   0  0  0  0  0  0  0  0  0  0  0  0
    3.6542    0.1000    0.0000 N   0  0  0  0  0  0  0  0  0  0  0  0
    3.4417   -3.5667    0.0000 C   0  0  0  0  0  0  0  0  0  0  0  0
    4.2167   -2.8042    0.0000 C   0  0  0  0  0  0  0  0  0  0  0  0
    4.0500   -3.4042    0.0000 C   0  0  0  0  0  0  0  0  0  0  0  0
    4.9417   -2.6167    0.0000 Cl  0  0  0  0  0  0  0  0  0  0  0  0
    3.7750   -1.1917    0.0000 C   0  0  0  0  0  0  0  0  0  0  0  0
    2.5917   -0.6500    0.0000 C   0  0  0  0  0  0  0  0  0  0  0  0
    0.7792   -2.4542    0.0000 C   0  0  0  0  0  0  0  0  0  0  0  0
    2.9042    0.0333    0.0000 C   0  0  0  0  0  0  0  0  0  0  0  0
    4.0875   -0.5125    0.0000 C   0  0  0  0  0  0  0  0  0  0  0  0
    1.2417   -3.8417    0.0000 C   0  0  0  0  0  0  0  0  0  0  0  0
    0.5250   -3.7000    0.0000 C   0  0  0  0  0  0  0  0  0  0  0  0
    0.2917   -3.0042    0.0000 C   0  0  0  0  0  0  0  0  0  0  0  0
  2  1  2  0
  3  1  1  0
  4  3  2  0
  5  4  1  0
  6  1  1  0
  7  2  1  0
  8  7  2  0
  9  3  1  0
 10 18  1  0
 11  4  1  0
 12  9  2  0
 13 12  1  0
 14 12  1  0
 15  6  1  0
 16  6  1  0
 17  7  1  0
 18 16  1  0
 19 15  1  0
 20  8  1  0
 21 22  1  0
 22 17  2  0
 10 19  1  0
  5  8  1  0
 13 11  2  0
 20 21  2  0
M  END
>  <ID>  (351) 


>  <MOLENAME>  (351) 
AMOXAPINE

>  <therap>  (351) 
antidepressant, inhibits norepinephrine uptake

>  <ref>  (351) 
Arch Int Pharmacodyn Ther 233:107 (1978); J  Int Med Res 7:7 (1979)

>  <cas#>  (351) 
14028-44-5

>  <source>  (351) 
synthetic

>  <status>  (351) 
USP, INN, BAN, JAN

>  <tradename>  (351) 
ASENDIN

>  <SMILES>  (351) 
Clc1cc2c(cc1)Oc1c(cccc1)N=C2N1CCNCC1

>  <standardized_failed>  (351) 
False

$$$$

     RDKit          2D

 25 29  0  0  0  0  0  0  0  0999 V2000
    5.7417   -4.2917    0.0000 C   0  0  0  0  0  0  0  0  0  0  0  0
    7.8875   -3.0542    0.0000 C   0  0  0  0  0  0  0  0  0  0  0  0
    5.7417   -5.1250    0.0000 C   0  0  0  0  0  0  0  0  0  0  0  0
    6.4542   -3.8792    0.0000 C   0  0  0  0  0  0  0  0  0  0  0  0
    4.3125   -4.2917    0.0000 C   0  0  0  0  0  0  0  0  0  0  0  0
    7.8875   -3.8792    0.0000 C   0  0  0  0  0  0  0  0  0  0  0  0
    4.3125   -5.1250    0.0000 C   0  0  0  0  0  0  0  0  0  0  0  0
    7.1667   -4.2917    0.0000 C   0  0  0  0  0  0  0  0  0  0  0  0
    5.0292   -5.5375    0.0000 C   0  0  0  0  0  0  0  0  0  0  0  0
    5.0292   -3.8792    0.0000 C   0  0  0  0  0  0  0  0  0  0  0  0
    8.6667   -2.8000    0.0000 C   0  0  0  0  0  0  0  0  0  0  0  0
    3.0417   -4.7125    0.0000 N   0  0  0  0  0  0  0  0  0  0  0  0
    9.0042   -2.0417    0.0000 C   0  0  0  0  0  0  0  0  0  0  0  0
    7.1667   -2.6417    0.0000 C   0  0  0  0  0  0  0  0  0  0  0  0
    3.5292   -5.3792    0.0000 O   0  0  0  0  0  0  0  0  0  0  0  0
    6.4542   -3.0542    0.0000 C   0  0  0  0  0  0  0  0  0  0  0  0
    7.1667   -5.1250    0.0000 C   0  0  0  0  0  0  0  0  0  0  0  0
    8.6667   -4.1292    0.0000 C   0  0  0  0  0  0  0  0  0  0  0  0
    9.3417   -1.2875    0.0000 C   0  0  0  0  0  0  0  0  0  0  0  0
    6.4542   -5.5375    0.0000 C   0  0  0  0  0  0  0  0  0  0  0  0
    3.5292   -4.0417    0.0000 C   0  0  0  0  0  0  0  0  0  0  0  0
    9.1542   -3.4667    0.0000 C   0  0  0  0  0  0  0  0  0  0  0  0
    9.4500   -2.8042    0.0000 O   0  0  0  0  0  0  0  0  0  0  0  0
    5.7417   -3.4667    0.0000 C   0  0  0  0  0  0  0  0  0  0  0  0
    7.8875   -2.2417    0.0000 C   0  0  0  0  0  0  0  0  0  0  0  0
  2 14  1  0
  3  1  1  0
  4  1  1  0
  5 10  1  0
  6  8  1  0
  7  5  2  0
  8  4  1  0
  9  3  2  0
 10  1  1  0
 11  2  1  0
 12 21  2  0
 11 13  1  0
 14 16  1  0
 15  7  1  0
 16  4  1  0
 17  8  1  0
 18  6  1  0
 19 13  3  0
 20  3  1  0
 21  5  1  0
 22 18  1  0
 11 23  1  1
  1 24  1  1
  2 25  1  1
 20 17  1  0
  9  7  1  0
  2  6  1  0
 12 15  1  0
 22 11  1  0
M  END
>  <ID>  (352) 


>  <MOLENAME>  (352) 
DANAZOL

>  <therap>  (352) 
anterior pituitary suppressant

>  <ref>  (352) 
J. Reprod. Med. (1990), 35(1 Suppl), 69-74; Drugs (1980), 19(5), 362-9; Fertil. Steril. (1971), 22(1), 9-18

>  <cas#>  (352) 
17230-88-5

>  <source>  (352) 
synthetic; WIN-17757

>  <status>  (352) 
USP, INN, BAN, JAN

>  <tradename>  (352) 
DANOCRINE

>  <SMILES>  (352) 
C#C[C@]1(O)CCC2C3CCC4=Cc5c(cno5)C[C@]4(C)C3CC[C@@]21C

>  <standardized_failed>  (352) 
False

$$$$

     RDKit          2D

 17 18  0  0  0  0  0  0  0  0999 V2000
    5.5417   -3.4292    0.0000 S   0  0  0  0  0  0  0  0  0  0  0  0
    6.3542   -3.6042    0.0000 C   0  0  0  0  0  0  0  0  0  0  0  0
    4.7292   -3.2542    0.0000 C   0  0  0  0  0  0  0  0  0  0  0  0
    5.7167   -2.6167    0.0000 O   0  0  0  0  0  0  0  0  0  0  0  0
    5.3667   -4.2417    0.0000 O   0  0  0  0  0  0  0  0  0  0  0  0
    6.9125   -2.9917    0.0000 C   0  0  0  0  0  0  0  0  0  0  0  0
    4.4792   -2.4667    0.0000 C   0  0  0  0  0  0  0  0  0  0  0  0
    4.1792   -3.8667    0.0000 C   0  0  0  0  0  0  0  0  0  0  0  0
    6.6125   -4.3792    0.0000 C   0  0  0  0  0  0  0  0  0  0  0  0
    3.1167   -2.9042    0.0000 C   0  0  0  0  0  0  0  0  0  0  0  0
    7.9667   -3.9500    0.0000 C   0  0  0  0  0  0  0  0  0  0  0  0
    2.3125   -2.7167    0.0000 N   0  0  0  0  0  0  0  0  0  0  0  0
    8.7875   -4.1167    0.0000 N   0  0  0  0  0  0  0  0  0  0  0  0
    3.3750   -3.6917    0.0000 C   0  0  0  0  0  0  0  0  0  0  0  0
    7.7125   -3.1667    0.0000 C   0  0  0  0  0  0  0  0  0  0  0  0
    3.6750   -2.2917    0.0000 C   0  0  0  0  0  0  0  0  0  0  0  0
    7.4167   -4.5625    0.0000 C   0  0  0  0  0  0  0  0  0  0  0  0
  2  1  1  0
  3  1  1  0
  4  1  2  0
  5  1  2  0
  6  2  2  0
  7  3  2  0
  8  3  1  0
  9  2  1  0
 10 14  1  0
 11 17  1  0
 12 10  1  0
 13 11  1  0
 14  8  2  0
 15  6  1  0
 16  7  1  0
 17  9  2  0
 10 16  2  0
 15 11  2  0
M  END
>  <ID>  (353) 


>  <MOLENAME>  (353) 
DAPSONE

>  <therap>  (353) 
antibacterial, leprostatic, dermatitis herpetiformis suppressant

>  <ref>  (353) 
Arch. Intern. Med. (1967), 120(2), 242-8; Int. J. Dermatol. (1988), 27(8), 547-52; Prog. Drug Res. (1974), 18, 99-172

>  <cas#>  (353) 
80-08-0

>  <source>  (353) 
synthetic; NSC-6091

>  <status>  (353) 
USP, INN, BAN

>  <tradename>  (353) 
nan

>  <SMILES>  (353) 
Nc1ccc(S(=O)(=O)c2ccc(N)cc2)cc1

>  <standardized_failed>  (353) 
False

$$$$

     RDKit          2D

 38 42  0  0  0  0  0  0  0  0999 V2000
    1.3250    1.4958    0.0000 C   0  0  0  0  0  0  0  0  0  0  0  0
    1.3250    0.6708    0.0000 C   0  0  0  0  0  0  0  0  0  0  0  0
    0.6125    0.2583    0.0000 C   0  0  0  0  0  0  0  0  0  0  0  0
    0.6125    1.9083    0.0000 C   0  0  0  0  0  0  0  0  0  0  0  0
    2.7500    0.6708    0.0000 C   0  0  0  0  0  0  0  0  0  0  0  0
    2.7500    1.4958    0.0000 C   0  0  0  0  0  0  0  0  0  0  0  0
   -0.1083    0.6708    0.0000 C   0  0  0  0  0  0  0  0  0  0  0  0
    2.0375    1.9083    0.0000 C   0  0  0  0  0  0  0  0  0  0  0  0
    2.0375    0.2583    0.0000 C   0  0  0  0  0  0  0  0  0  0  0  0
   -0.1083    1.4958    0.0000 C   0  0  0  0  0  0  0  0  0  0  0  0
    4.1792    1.4958    0.0000 C   0  0  0  0  0  0  0  0  0  0  0  0
    3.4625    0.2583    0.0000 C   0  0  0  0  0  0  0  0  0  0  0  0
    3.4625    1.9083    0.0000 C   0  0  0  0  0  0  0  0  0  0  0  0
    4.1750   -0.9792    0.0000 C   0  0  0  0  0  0  0  0  0  0  0  0
    4.1750   -1.8042    0.0000 O   0  0  0  0  0  0  0  0  0  0  0  0
    4.1792    0.6708    0.0000 C   0  0  0  0  0  0  0  0  0  0  0  0
    4.8917   -0.5667    0.0000 C   0  0  0  0  0  0  0  0  0  0  0  0
    5.6125   -1.8042    0.0000 C   0  0  0  0  0  0  0  0  0  0  0  0
    5.6125   -0.9792    0.0000 C   0  0  0  0  0  0  0  0  0  0  0  0
    4.8875   -2.2167    0.0000 C   0  0  0  0  0  0  0  0  0  0  0  0
    3.4667   -0.5667    0.0000 O   0  0  0  0  0  0  0  0  0  0  0  0
    4.3917    2.2958    0.0000 C   0  0  0  0  0  0  0  0  0  0  0  0
    0.6125    2.7333    0.0000 O   0  0  0  0  0  0  0  0  0  0  0  0
    0.6125   -0.5667    0.0000 O   0  0  0  0  0  0  0  0  0  0  0  0
   -0.8208    0.2583    0.0000 C   0  0  0  0  0  0  0  0  0  0  0  0
    5.1875    2.5083    0.0000 O   0  0  0  0  0  0  0  0  0  0  0  0
    2.0375    2.7333    0.0000 O   0  0  0  0  0  0  0  0  0  0  0  0
    2.0375   -0.5667    0.0000 O   0  0  0  0  0  0  0  0  0  0  0  0
    5.0000    1.4208    0.0000 O   0  0  0  0  0  0  0  0  0  0  0  0
    6.3292   -0.5542    0.0000 N   0  0  0  0  0  0  0  0  0  0  0  0
    6.3375   -2.2292    0.0000 O   0  0  0  0  0  0  0  0  0  0  0  0
   -0.8208    1.9083    0.0000 C   0  0  0  0  0  0  0  0  0  0  0  0
   -0.8208   -0.5667    0.0000 O   0  0  0  0  0  0  0  0  0  0  0  0
    4.8792   -3.0417    0.0000 C   0  0  0  0  0  0  0  0  0  0  0  0
   -1.5375    1.4958    0.0000 C   0  0  0  0  0  0  0  0  0  0  0  0
   -1.5375    0.6708    0.0000 C   0  0  0  0  0  0  0  0  0  0  0  0
    3.8125    2.8708    0.0000 C   0  0  0  0  0  0  0  0  0  0  0  0
   -0.1083   -0.9792    0.0000 C   0  0  0  0  0  0  0  0  0  0  0  0
  2  1  2  0
  3  2  1  0
  4  1  1  0
  5  6  1  0
  6  8  2  0
  7 10  2  0
  8  1  1  0
  9  2  1  0
 10  4  1  0
 11 13  1  0
 12  5  1  0
 13  6  1  0
 14 21  1  1
 15 14  1  0
 16 11  1  0
 17 14  1  0
 18 19  1  0
 19 17  1  0
 20 15  1  0
 12 21  1  6
 11 22  1  0
 23  4  2  0
 24  3  2  0
 25  7  1  0
 26 22  2  0
 27  8  1  0
 28  9  1  0
 11 29  1  6
 19 30  1  6
 18 31  1  6
 32 10  1  0
 33 25  1  0
 20 34  1  6
 35 32  2  0
 36 35  1  0
 37 22  1  0
 38 33  1  0
  5  9  2  0
  7  3  1  0
 16 12  1  0
 25 36  2  0
 18 20  1  0
M  END
>  <ID>  (354) 


>  <MOLENAME>  (354) 
DAUNORUBICIN

>  <therap>  (354) 
antineoplastic

>  <ref>  (354) 
Biochem. Pharmacol. (1999), 57(7), 727-741; J. Cell Biol. (1965), 27(3), 545-50; Nature (1964), 201, 706-7

>  <cas#>  (354) 
20830-81-3

>  <source>  (354) 
Streptomyces peucetius; FI-6339, NDC-0082-4155, RP-13057

>  <status>  (354) 
USAN, INN, BAN, JAN

>  <tradename>  (354) 
DAUNOXOME

>  <SMILES>  (354) 
COc1cccc2c1C(=O)c1c(C2=O)c(O)c2C[C@@](O)(C(C)=O)C[C@H](O[C@H]3C[C@H](N)[C@H](O)[C@H](C)O3)c2c1O

>  <standardized_failed>  (354) 
False

$$$$

     RDKit          2D

 30 32  0  0  0  0  0  0  0  0999 V2000
    6.6042   -3.6042    0.0000 C   0  0  0  0  0  0  0  0  0  0  0  0
    5.1750   -4.4292    0.0000 C   0  0  0  0  0  0  0  0  0  0  0  0
    6.6042   -4.4292    0.0000 C   0  0  0  0  0  0  0  0  0  0  0  0
    4.4625   -4.8417    0.0000 C   0  0  0  0  0  0  0  0  0  0  0  0
    5.8917   -4.8417    0.0000 C   0  0  0  0  0  0  0  0  0  0  0  0
    5.8875   -3.1917    0.0000 C   0  0  0  0  0  0  0  0  0  0  0  0
    5.8917   -5.6750    0.0000 C   0  0  0  0  0  0  0  0  0  0  0  0
    4.4625   -5.6750    0.0000 C   0  0  0  0  0  0  0  0  0  0  0  0
    5.1750   -3.6042    0.0000 C   0  0  0  0  0  0  0  0  0  0  0  0
    7.3917   -3.3500    0.0000 C   0  0  0  0  0  0  0  0  0  0  0  0
    5.1750   -6.0875    0.0000 C   0  0  0  0  0  0  0  0  0  0  0  0
    7.3917   -4.6875    0.0000 C   0  0  0  0  0  0  0  0  0  0  0  0
    3.7500   -4.4292    0.0000 C   0  0  0  0  0  0  0  0  0  0  0  0
    7.8750   -4.0167    0.0000 C   0  0  0  0  0  0  0  0  0  0  0  0
    9.5417   -2.1375    0.0000 C   0  0  0  0  0  0  0  0  0  0  0  0
    3.7500   -6.0875    0.0000 C   0  0  0  0  0  0  0  0  0  0  0  0
    5.8792   -2.3667    0.0000 O   0  0  0  0  0  0  0  0  0  0  0  0
    6.6125   -6.0917    0.0000 O   0  0  0  0  0  0  0  0  0  0  0  0
    3.0292   -5.6750    0.0000 C   0  0  0  0  0  0  0  0  0  0  0  0
    9.8792   -2.8917    0.0000 O   0  0  0  0  0  0  0  0  0  0  0  0
   10.0292   -1.4667    0.0000 O   0  0  0  0  0  0  0  0  0  0  0  0
    7.6417   -2.5625    0.0000 C   0  0  0  0  0  0  0  0  0  0  0  0
    2.3125   -6.0917    0.0000 O   0  0  0  0  0  0  0  0  0  0  0  0
    8.2375   -2.7125    0.0000 C   0  0  0  0  0  0  0  0  0  0  0  0
    3.0292   -4.8417    0.0000 C   0  0  0  0  0  0  0  0  0  0  0  0
    8.7167   -2.0417    0.0000 C   0  0  0  0  0  0  0  0  0  0  0  0
    6.6042   -2.7417    0.0000 C   0  0  0  0  0  0  0  0  0  0  0  0
    4.4625   -4.0167    0.0000 C   0  0  0  0  0  0  0  0  0  0  0  0
   10.7542   -2.0542    0.0000 Na  0  0  0  0  0 15  0  0  0  0  0  0
    7.2417   -1.8917    0.0000 C   0  0  0  0  0  0  0  0  0  0  0  0
  2  9  1  0
  3  1  1  0
  4  2  1  0
  5  3  1  0
  6  1  1  0
  7  5  1  0
  8  4  1  0
  9  6  1  0
 10  1  1  0
 11  7  1  0
 12  3  1  0
 13  4  1  0
 10 14  1  1
 15 26  1  0
 16  8  1  0
 17  6  2  0
 18  7  2  0
 19 25  1  0
 20 15  1  0
 21 15  2  0
 10 22  1  0
 23 19  2  0
 24 22  1  0
 25 13  1  0
 26 24  1  0
  1 27  1  1
  4 28  1  1
 22 30  1  6
 14 12  1  0
  2  5  1  0
 11  8  1  0
 19 16  1  0
M  CHG  2  20  -1  29   1
M  END
>  <ID>  (355) 


>  <MOLENAME>  (355) 
DEHYDROCHOLATE SODIUM

>  <therap>  (355) 
choleretic

>  <ref>  (355) 
Biochem. J. (1990), 270(3), 691-5; Drugs (1986), 31(5), 430-48; J. Pharmacol. Exp. Ther. (1945), 85, 343-5

>  <cas#>  (355) 
145-41-5

>  <source>  (355) 
semisynthetic

>  <status>  (355) 
USP-XXI, INN, BAN, JAN

>  <tradename>  (355) 
DECHOLIN SODIUM

>  <SMILES>  (355) 
C[C@H](CCC(=O)O)[C@H]1CCC2C3C(=O)CC4CC(=O)CC[C@]4(C)C3CC(=O)[C@@]21C

>  <standardized_failed>  (355) 
False

$$$$

     RDKit          2D

 33 35  0  0  0  0  0  0  0  0999 V2000
    6.8125   -2.9792    0.0000 C   0  0  0  0  0  0  0  0  0  0  0  0
    5.5125   -2.9792    0.0000 C   0  0  0  0  0  0  0  0  0  0  0  0
    8.1042   -2.9792    0.0000 C   0  0  0  0  0  0  0  0  0  0  0  0
    6.1625   -2.6042    0.0000 C   0  0  0  0  0  0  0  0  0  0  0  0
    7.4542   -2.6042    0.0000 C   0  0  0  0  0  0  0  0  0  0  0  0
    4.8625   -2.6042    0.0000 C   0  0  0  0  0  0  0  0  0  0  0  0
    6.8125   -3.7292    0.0000 C   0  0  0  0  0  0  0  0  0  0  0  0
    8.1042   -3.7292    0.0000 C   0  0  0  0  0  0  0  0  0  0  0  0
    4.2167   -2.9792    0.0000 C   0  0  0  0  0  0  0  0  0  0  0  0
    4.2167   -3.7292    0.0000 C   0  0  0  0  0  0  0  0  0  0  0  0
    5.5125   -3.7292    0.0000 C   0  0  0  0  0  0  0  0  0  0  0  0
    4.8625   -4.1042    0.0000 C   0  0  0  0  0  0  0  0  0  0  0  0
    7.4542   -4.1042    0.0000 C   0  0  0  0  0  0  0  0  0  0  0  0
    6.1625   -4.1042    0.0000 C   0  0  0  0  0  0  0  0  0  0  0  0
    8.7625   -2.6000    0.0000 C   0  0  0  0  0  0  0  0  0  0  0  0
    3.5750   -4.1042    0.0000 C   0  0  0  0  0  0  0  0  0  0  0  0
    3.5750   -2.6042    0.0000 C   0  0  0  0  0  0  0  0  0  0  0  0
    7.4542   -1.8542    0.0000 O   0  0  0  0  0  0  0  0  0  0  0  0
    4.8625   -1.8542    0.0000 O   0  0  0  0  0  0  0  0  0  0  0  0
    8.0125   -4.6125    0.0000 N   0  0  0  0  0  0  0  0  0  0  0  0
    6.8125   -2.2292    0.0000 O   0  0  0  0  0  0  0  0  0  0  0  0
    8.7625   -1.8500    0.0000 O   0  0  0  0  0  0  0  0  0  0  0  0
    6.1625   -1.8542    0.0000 O   0  0  0  0  0  0  0  0  0  0  0  0
    8.7625   -4.1125    0.0000 O   0  0  0  0  0  0  0  0  0  0  0  0
    2.9250   -3.7292    0.0000 C   0  0  0  0  0  0  0  0  0  0  0  0
    2.9250   -2.9792    0.0000 C   0  0  0  0  0  0  0  0  0  0  0  0
    4.4875   -4.7542    0.0000 O   0  0  0  0  0  0  0  0  0  0  0  0
    9.4125   -2.9750    0.0000 N   0  0  0  0  0  0  0  0  0  0  0  0
    3.5750   -4.8625    0.0000 Cl  0  0  0  0  0  0  0  0  0  0  0  0
    3.5750   -1.8542    0.0000 O   0  0  0  0  0  0  0  0  0  0  0  0
    8.7000   -5.9667    0.0000 Cl  0  0  0  0  0  0  0  0  0  0  0  0
    8.8125   -4.6000    0.0000 C   0  0  0  0  0  0  0  0  0  0  0  0
    7.8625   -5.3417    0.0000 C   0  0  0  0  0  0  0  0  0  0  0  0
  2  4  2  0
  3  5  1  0
  4  1  1  0
  5  1  1  0
  6  2  1  0
  7  1  1  0
  8 13  1  0
  9  6  1  0
 10 12  1  0
 11 14  1  6
 12 11  1  0
 13  7  1  0
  7 14  1  6
 15  3  1  0
 16 10  2  0
 17  9  2  0
 18  5  2  0
 19  6  2  0
 13 20  1  1
  1 21  1  1
 22 15  2  0
 23  4  1  0
 24  8  1  0
 25 16  1  0
 26 17  1  0
 12 27  1  6
 28 15  1  0
 29 16  1  0
 30 17  1  0
 32 20  1  0
 33 20  1  0
  2 11  1  0
  8  3  2  0
  9 10  1  0
 25 26  2  0
M  END
>  <ID>  (356) 


>  <MOLENAME>  (356) 
DEMECLOCYCLINE HYDROCHLORIDE

>  <therap>  (356) 
antibacterial

>  <ref>  (356) 
J. Am. Chem. Soc. (1957), 79, 4561-3; Med. Klin. (1963), 58, 1722-6; Br. J. Vener. Dis. (1962), 38, 157-60

>  <cas#>  (356) 
127-33-3

>  <source>  (356) 
Streptomyces aureofaiens

>  <status>  (356) 
USP, BAN, JAN

>  <tradename>  (356) 
DECLOMYCIN

>  <SMILES>  (356) 
CN(C)[C@@H]1C(O)=C(C(N)=O)C(=O)[C@@]2(O)C(O)=C3C(=O)c4c(O)ccc(Cl)c4[C@@H](O)[C@H]3C[C@@H]12

>  <standardized_failed>  (356) 
False

$$$$

     RDKit          2D

 21 22  0  0  0  0  0  0  0  0999 V2000
    6.0000   -2.8292    0.0000 N   0  0  0  0  0  0  0  0  0  0  0  0
    5.4125   -2.3625    0.0000 C   0  0  0  0  0  0  0  0  0  0  0  0
    6.7250   -2.6625    0.0000 C   0  0  0  0  0  0  0  0  0  0  0  0
    5.4125   -1.6125    0.0000 C   0  0  0  0  0  0  0  0  0  0  0  0
    7.0500   -1.9792    0.0000 C   0  0  0  0  0  0  0  0  0  0  0  0
    6.7250   -1.3125    0.0000 C   0  0  0  0  0  0  0  0  0  0  0  0
    6.0000   -1.1417    0.0000 C   0  0  0  0  0  0  0  0  0  0  0  0
    5.8375   -3.5667    0.0000 C   0  0  0  0  0  0  0  0  0  0  0  0
    6.8000   -5.3042    0.0000 N   0  0  0  0  0  0  0  0  0  0  0  0
    8.0125   -4.4667    0.0000 Cl  0  0  0  0  0  0  0  0  0  0  0  0
    6.3917   -4.0667    0.0000 C   0  0  0  0  0  0  0  0  0  0  0  0
    4.7667   -2.7375    0.0000 C   0  0  0  0  0  0  0  0  0  0  0  0
    7.1500   -3.2792    0.0000 C   0  0  0  0  0  0  0  0  0  0  0  0
    6.2375   -4.8042    0.0000 C   0  0  0  0  0  0  0  0  0  0  0  0
    7.8000   -1.9250    0.0000 C   0  0  0  0  0  0  0  0  0  0  0  0
    4.7667   -1.2292    0.0000 C   0  0  0  0  0  0  0  0  0  0  0  0
    6.6500   -6.0375    0.0000 C   0  0  0  0  0  0  0  0  0  0  0  0
    7.9000   -3.2167    0.0000 C   0  0  0  0  0  0  0  0  0  0  0  0
    4.1167   -2.3625    0.0000 C   0  0  0  0  0  0  0  0  0  0  0  0
    8.2250   -2.5417    0.0000 C   0  0  0  0  0  0  0  0  0  0  0  0
    4.1167   -1.6125    0.0000 C   0  0  0  0  0  0  0  0  0  0  0  0
  2  1  1  0
  3  1  1  0
  4  2  2  0
  5  3  2  0
  6  5  1  0
  7  4  1  0
  8  1  1  0
  9 14  1  0
 11  8  1  0
 12  2  1  0
 13  3  1  0
 14 11  1  0
 15  5  1  0
 16  4  1  0
 17  9  1  0
 18 13  2  0
 19 12  2  0
 20 18  1  0
 21 19  1  0
  7  6  1  0
 15 20  2  0
 21 16  2  0
M  END
>  <ID>  (357) 


>  <MOLENAME>  (357) 
DESIPRAMINE HYDROCHLORIDE

>  <therap>  (357) 
antidepressant

>  <ref>  (357) 
J. Clin. Psychiatry (1984), 45(10 Pt 2), 3-9; Experientia (1965), 21, 39; Dis. Nerv. Syst. (1964), 25, 42-4

>  <cas#>  (357) 
58-28-6, 50-47-5 [desipramine]

>  <source>  (357) 
synthetic; G-35020, JB-8181, EX-4355,RMI-9384A

>  <status>  (357) 
USP, INN, BAN, JAN

>  <tradename>  (357) 
NORPRAMIN

>  <SMILES>  (357) 
CNCCCN1c2c(cccc2)CCc2c1cccc2

>  <standardized_failed>  (357) 
False

$$$$

     RDKit          2D

 28 31  0  0  0  0  0  0  0  0999 V2000
    7.2500   -3.5042    0.0000 C   0  0  0  0  0  0  0  0  0  0  0  0
    5.8167   -4.3292    0.0000 C   0  0  0  0  0  0  0  0  0  0  0  0
    5.1042   -4.7417    0.0000 C   0  0  0  0  0  0  0  0  0  0  0  0
    7.2500   -4.3292    0.0000 C   0  0  0  0  0  0  0  0  0  0  0  0
    6.5292   -4.7417    0.0000 C   0  0  0  0  0  0  0  0  0  0  0  0
    8.0292   -3.2500    0.0000 C   0  0  0  0  0  0  0  0  0  0  0  0
    5.1042   -5.5750    0.0000 C   0  0  0  0  0  0  0  0  0  0  0  0
    5.8167   -3.5042    0.0000 C   0  0  0  0  0  0  0  0  0  0  0  0
    6.5292   -3.0917    0.0000 C   0  0  0  0  0  0  0  0  0  0  0  0
    8.5167   -3.9167    0.0000 C   0  0  0  0  0  0  0  0  0  0  0  0
    4.3917   -4.3292    0.0000 C   0  0  0  0  0  0  0  0  0  0  0  0
    8.0292   -4.5875    0.0000 C   0  0  0  0  0  0  0  0  0  0  0  0
    4.3917   -5.9875    0.0000 C   0  0  0  0  0  0  0  0  0  0  0  0
    8.3667   -2.4917    0.0000 C   0  0  0  0  0  0  0  0  0  0  0  0
    6.5292   -5.5750    0.0000 C   0  0  0  0  0  0  0  0  0  0  0  0
    3.6750   -4.7417    0.0000 C   0  0  0  0  0  0  0  0  0  0  0  0
    3.6750   -5.5750    0.0000 C   0  0  0  0  0  0  0  0  0  0  0  0
    5.8167   -5.9875    0.0000 C   0  0  0  0  0  0  0  0  0  0  0  0
    5.8167   -5.1625    0.0000 F   0  0  0  0  0  0  0  0  0  0  0  0
    9.1917   -2.4042    0.0000 O   0  0  0  0  0  0  0  0  0  0  0  0
    2.9542   -5.9917    0.0000 O   0  0  0  0  0  0  0  0  0  0  0  0
    8.8542   -3.2167    0.0000 O   0  0  0  0  0  0  0  0  0  0  0  0
    7.2417   -2.6792    0.0000 C   0  0  0  0  0  0  0  0  0  0  0  0
    5.0917   -3.0792    0.0000 O   0  0  0  0  0  0  0  0  0  0  0  0
    5.1042   -3.9167    0.0000 C   0  0  0  0  0  0  0  0  0  0  0  0
    9.3417   -3.9125    0.0000 C   0  0  0  0  0  0  0  0  0  0  0  0
    7.8792   -1.8250    0.0000 C   0  0  0  0  0  0  0  0  0  0  0  0
    8.2167   -1.0667    0.0000 O   0  0  0  0  0  0  0  0  0  0  0  0
  2  8  1  0
  3  2  1  0
  4  1  1  0
  5  4  1  0
  6  1  1  0
  7  3  1  0
  8  9  1  0
  9  1  1  0
 10  6  1  0
 11  3  1  0
 12  4  1  0
 13  7  2  0
  6 14  1  0
 15  5  1  0
 16 11  2  0
 17 16  1  0
 18 15  1  0
  2 19  1  6
 20 14  2  0
 21 17  2  0
  6 22  1  6
  1 23  1  1
  8 24  1  1
  3 25  1  1
 10 26  1  6
 27 14  1  0
 28 27  1  0
 12 10  1  0
  2  5  1  0
  7 18  1  0
 13 17  1  0
M  END
>  <ID>  (358) 


>  <MOLENAME>  (358) 
DEXAMETHASONE

>  <therap>  (358) 
glucocorticoid

>  <ref>  (358) 
Adv. Exp. Med. Biol. (1986), 196, 81-96; Rheumatism (1962), 18, 81-3; Antibiot. Chemother. (1961), 11, 772-9

>  <cas#>  (358) 
50-02-2

>  <source>  (358) 
semisynthetic

>  <status>  (358) 
USP, INN, BAN, JAN

>  <tradename>  (358) 
MAXIDEX

>  <SMILES>  (358) 
C[C@@H]1CC2C3CCC4=CC(=O)C=C[C@]4(C)[C@@]3(F)[C@@H](O)C[C@]2(C)[C@@]1(O)C(=O)CO

>  <standardized_failed>  (358) 
False

$$$$

     RDKit          2D

 31 34  0  0  0  0  0  0  0  0999 V2000
    6.8167   -4.0042    0.0000 C   0  0  0  0  0  0  0  0  0  0  0  0
    5.3875   -4.8417    0.0000 C   0  0  0  0  0  0  0  0  0  0  0  0
    4.6667   -5.2542    0.0000 C   0  0  0  0  0  0  0  0  0  0  0  0
    6.8167   -4.8417    0.0000 C   0  0  0  0  0  0  0  0  0  0  0  0
    7.6000   -3.7542    0.0000 C   0  0  0  0  0  0  0  0  0  0  0  0
    6.1000   -5.2542    0.0000 C   0  0  0  0  0  0  0  0  0  0  0  0
    4.6667   -6.0792    0.0000 C   0  0  0  0  0  0  0  0  0  0  0  0
    5.3875   -4.0042    0.0000 C   0  0  0  0  0  0  0  0  0  0  0  0
    6.1000   -3.6000    0.0000 C   0  0  0  0  0  0  0  0  0  0  0  0
    8.0792   -4.4250    0.0000 C   0  0  0  0  0  0  0  0  0  0  0  0
    3.9542   -4.8417    0.0000 C   0  0  0  0  0  0  0  0  0  0  0  0
    7.6000   -5.0917    0.0000 C   0  0  0  0  0  0  0  0  0  0  0  0
    7.8167   -2.9625    0.0000 C   0  0  0  0  0  0  0  0  0  0  0  0
    3.9542   -6.4917    0.0000 C   0  0  0  0  0  0  0  0  0  0  0  0
    6.1000   -6.0792    0.0000 C   0  0  0  0  0  0  0  0  0  0  0  0
    3.2417   -5.2542    0.0000 C   0  0  0  0  0  0  0  0  0  0  0  0
    3.2417   -6.0792    0.0000 C   0  0  0  0  0  0  0  0  0  0  0  0
    5.3875   -6.4917    0.0000 C   0  0  0  0  0  0  0  0  0  0  0  0
    6.8750   -1.0042    0.0000 C   0  0  0  0  0  0  0  0  0  0  0  0
    5.3875   -5.6667    0.0000 F   0  0  0  0  0  0  0  0  0  0  0  0
    7.2375   -2.3750    0.0000 C   0  0  0  0  0  0  0  0  0  0  0  0
    8.6125   -2.7542    0.0000 O   0  0  0  0  0  0  0  0  0  0  0  0
    7.4542   -1.5875    0.0000 O   0  0  0  0  0  0  0  0  0  0  0  0
    7.0875   -0.2167    0.0000 O   0  0  0  0  0  0  0  0  0  0  0  0
    2.5167   -6.5042    0.0000 O   0  0  0  0  0  0  0  0  0  0  0  0
    8.4500   -3.6542    0.0000 O   0  0  0  0  0  0  0  0  0  0  0  0
    6.8250   -3.1792    0.0000 C   0  0  0  0  0  0  0  0  0  0  0  0
    4.6667   -3.5875    0.0000 O   0  0  0  0  0  0  0  0  0  0  0  0
    4.6667   -4.4250    0.0000 C   0  0  0  0  0  0  0  0  0  0  0  0
    8.9042   -4.4167    0.0000 C   0  0  0  0  0  0  0  0  0  0  0  0
    6.0750   -1.2167    0.0000 C   0  0  0  0  0  0  0  0  0  0  0  0
  2  8  1  0
  3  2  1  0
  4  1  1  0
  5  1  1  0
  6  4  1  0
  7  3  1  0
  8  9  1  0
  9  1  1  0
 10  5  1  0
 11  3  1  0
 12  4  1  0
 13  5  1  0
 14  7  2  0
 15  6  1  0
 16 11  2  0
 17 16  1  0
 18 15  1  0
 19 23  1  0
  2 20  1  6
 21 13  1  0
 22 13  2  0
 23 21  1  0
 24 19  2  0
 25 17  2  0
  5 26  1  6
  1 27  1  1
  8 28  1  1
  3 29  1  1
 10 30  1  6
 31 19  1  0
 10 12  1  0
  2  6  1  0
  7 18  1  0
 14 17  1  0
M  END
>  <ID>  (359) 


>  <MOLENAME>  (359) 
DEXAMETHASONE ACETATE

>  <therap>  (359) 
glucocorticoid, antiinflammatory

>  <ref>  (359) 
J Pharm Sci 75:934 (1986); EJHP Science 16:17 (2010)

>  <cas#>  (359) 
55812-90-3, 1177-87-3 [anhydrous]

>  <source>  (359) 
semisynthetic

>  <status>  (359) 
USP, INN, BAN, JAN

>  <tradename>  (359) 
DECADRON

>  <SMILES>  (359) 
CC(=O)OCC(=O)[C@@]1(O)[C@H](C)CC2C3CCC4=CC(=O)C=C[C@]4(C)[C@@]3(F)[C@@H](O)C[C@@]21C

>  <standardized_failed>  (359) 
False

$$$$

     RDKit          2D

 44 42  0  0  0  0  0  0  0  0999 V2000
   -0.4458    0.0458    0.0000 S   0  0  0  0  0  0  0  0  0  0  0  0
    9.6625   -4.5750    0.0000 C   0  0  0  0  0  0  0  0  0  0  0  0
    4.1000   -0.0750    0.0000 C   0  0  0  0  0  0  0  0  0  0  0  0
    6.9292   -8.6375    0.0000 C   0  0  0  0  0  0  0  0  0  0  0  0
    0.0417    0.5458    0.0000 O   0  0  0  0  0  0  0  0  0  0  0  0
   -0.9375    0.5458    0.0000 O   0  0  0  0  0  0  0  0  0  0  0  0
    5.8000   -1.1000    0.0000 C   0  0  0  0  0  0  0  0  0  0  0  0
   10.8750   -6.1417    0.0000 C   0  0  0  0  0  0  0  0  0  0  0  0
    3.6000   -0.6250    0.0000 N   0  0  0  0  0  0  0  0  0  0  0  0
    8.9292   -4.4250    0.0000 N   0  0  0  0  0  0  0  0  0  0  0  0
    6.6917   -7.9250    0.0000 N   0  0  0  0  0  0  0  0  0  0  0  0
    3.8667    0.6375    0.0000 O   0  0  0  0  0  0  0  0  0  0  0  0
   10.1625   -4.0167    0.0000 O   0  0  0  0  0  0  0  0  0  0  0  0
    7.6625   -8.7875    0.0000 O   0  0  0  0  0  0  0  0  0  0  0  0
    9.9000   -5.2875    0.0000 C   0  0  0  0  0  0  0  0  0  0  0  0
    4.8292   -0.2292    0.0000 C   0  0  0  0  0  0  0  0  0  0  0  0
    0.1500   -0.3000    0.0000 O   0  0  0  0  0  0  0  0  0  0  0  0
   11.6042   -6.2917    0.0000 O   0  0  0  0  0  0  0  0  0  0  0  0
    6.3000   -0.5417    0.0000 O   0  0  0  0  0  0  0  0  0  0  0  0
   10.3750   -6.7000    0.0000 N   0  0  0  0  0  0  0  0  0  0  0  0
    6.0292   -1.8125    0.0000 N   0  0  0  0  0  0  0  0  0  0  0  0
    5.0625   -0.9417    0.0000 C   0  0  0  0  0  0  0  0  0  0  0  0
   10.6375   -5.4375    0.0000 C   0  0  0  0  0  0  0  0  0  0  0  0
   -1.0458   -0.3000    0.0000 C   0  0  0  0  0  0  0  0  0  0  0  0
    8.4292   -4.9875    0.0000 O   0  0  0  0  0  0  0  0  0  0  0  0
    5.9625   -7.7750    0.0000 O   0  0  0  0  0  0  0  0  0  0  0  0
    3.8250   -1.3375    0.0000 O   0  0  0  0  0  0  0  0  0  0  0  0
    0.7250    2.0000    0.0000 N   0  0  0  0  0  0  0  0  0  0  0  0
    6.4292   -9.1917    0.0000 C   0  0  0  0  0  0  0  0  0  0  0  0
    2.8667   -0.4625    0.0000 C   0  0  0  0  0  0  0  0  0  0  0  0
    7.1875   -7.3667    0.0000 C   0  0  0  0  0  0  0  0  0  0  0  0
    8.7000   -3.7125    0.0000 C   0  0  0  0  0  0  0  0  0  0  0  0
    6.7625   -1.9750    0.0000 C   0  0  0  0  0  0  0  0  0  0  0  0
    9.6375   -6.5500    0.0000 C   0  0  0  0  0  0  0  0  0  0  0  0
    0.9500    1.2875    0.0000 C   0  0  0  0  0  0  0  0  0  0  0  0
    7.9167   -7.5167    0.0000 C   0  0  0  0  0  0  0  0  0  0  0  0
    2.6375    0.2500    0.0000 C   0  0  0  0  0  0  0  0  0  0  0  0
    7.9625   -3.5542    0.0000 C   0  0  0  0  0  0  0  0  0  0  0  0
    9.1417   -7.1125    0.0000 C   0  0  0  0  0  0  0  0  0  0  0  0
    7.0000   -2.6875    0.0000 C   0  0  0  0  0  0  0  0  0  0  0  0
    1.6750    1.1250    0.0000 C   0  0  0  0  0  0  0  0  0  0  0  0
    1.9125    0.4125    0.0000 C   0  0  0  0  0  0  0  0  0  0  0  0
    8.4125   -6.9625    0.0000 C   0  0  0  0  0  0  0  0  0  0  0  0
    7.7292   -2.8417    0.0000 C   0  0  0  0  0  0  0  0  0  0  0  0
  3 16  1  0
  4 11  1  0
  5  1  2  0
  6  1  2  0
  7 21  1  0
  8 23  1  0
  9  3  1  0
 10  2  1  0
 11 31  1  0
 12  3  2  0
 13  2  2  0
 14  4  2  0
 15  2  1  0
 16 22  1  0
 17  1  1  0
 18  8  2  0
 19  7  2  0
 20  8  1  0
 21 33  1  0
 22  7  1  0
 23 15  1  0
 24  1  1  0
 25 10  1  0
 26 11  1  0
 27  9  1  0
 28 35  1  0
 29  4  1  0
 30  9  1  0
 31 36  1  0
 32 10  1  0
 33 40  1  0
 34 20  1  0
 35 41  1  0
 36 43  1  0
 37 30  1  0
 38 32  1  0
 39 34  1  0
 40 44  1  0
 41 42  1  0
 42 37  1  0
 43 39  1  0
 44 38  1  0
M  END
>  <ID>  (360) 


>  <MOLENAME>  (360) 
DEFEROXAMINE MESYLATE

>  <therap>  (360) 
chelating agent (Fe & Al)

>  <ref>  (360) 
Prog. Hematol. (1979), 11267-312; Helv. Chim. Acta (1962), 45, 631-7; Helv. Chim. Acta (1960), 43, 2118-28

>  <cas#>  (360) 
138-14-7, 70-51-9 [deferoxamine]

>  <source>  (360) 
Strptomyces pilosus; BA-33112

>  <status>  (360) 
USAN, INN, BAN

>  <tradename>  (360) 
DESFERAL

>  <SMILES>  (360) 
CC(=O)N(O)CCCCCNC(=O)CCC(=O)N(O)CCCCCNC(=O)CCC(=O)N(O)CCCCCN

>  <standardized_failed>  (360) 
False

$$$$

     RDKit          2D

 34 35  0  0  0  0  0  0  0  0999 V2000
    6.5042   -4.0042    0.0000 C   0  0  0  0  0  0  0  0  0  0  0  0
    5.0792   -4.8417    0.0000 C   0  0  0  0  0  0  0  0  0  0  0  0
    4.3625   -5.2542    0.0000 C   0  0  0  0  0  0  0  0  0  0  0  0
    6.5042   -4.8417    0.0000 C   0  0  0  0  0  0  0  0  0  0  0  0
    7.2917   -3.7542    0.0000 C   0  0  0  0  0  0  0  0  0  0  0  0
    5.7917   -5.2542    0.0000 C   0  0  0  0  0  0  0  0  0  0  0  0
    4.3625   -6.0792    0.0000 C   0  0  0  0  0  0  0  0  0  0  0  0
    6.5667   -1.0042    0.0000 P   0  0  0  0  0  0  0  0  0  0  0  0
    5.0792   -4.0042    0.0000 C   0  0  0  0  0  0  0  0  0  0  0  0
    5.7917   -3.6000    0.0000 C   0  0  0  0  0  0  0  0  0  0  0  0
    7.7750   -4.4250    0.0000 C   0  0  0  0  0  0  0  0  0  0  0  0
    3.6500   -4.8417    0.0000 C   0  0  0  0  0  0  0  0  0  0  0  0
    7.2917   -5.0917    0.0000 C   0  0  0  0  0  0  0  0  0  0  0  0
    7.5042   -2.9625    0.0000 C   0  0  0  0  0  0  0  0  0  0  0  0
    3.6500   -6.4917    0.0000 C   0  0  0  0  0  0  0  0  0  0  0  0
    5.7917   -6.0792    0.0000 C   0  0  0  0  0  0  0  0  0  0  0  0
    2.9292   -5.2542    0.0000 C   0  0  0  0  0  0  0  0  0  0  0  0
    2.9292   -6.0792    0.0000 C   0  0  0  0  0  0  0  0  0  0  0  0
    6.9292   -2.3750    0.0000 C   0  0  0  0  0  0  0  0  0  0  0  0
    7.1417   -1.5875    0.0000 O   0  0  0  0  0  0  0  0  0  0  0  0
    5.9875   -1.5792    0.0000 O   0  0  0  0  0  0  0  0  0  0  0  0
    5.9917   -0.4250    0.0000 O   0  0  0  0  0  0  0  0  0  0  0  0
    5.0792   -6.4917    0.0000 C   0  0  0  0  0  0  0  0  0  0  0  0
    7.1417   -0.4292    0.0000 O   0  0  0  0  0  0  0  0  0  0  0  0
    5.0792   -5.6667    0.0000 F   0  0  0  0  0  0  0  0  0  0  0  0
    8.3042   -2.7542    0.0000 O   0  0  0  0  0  0  0  0  0  0  0  0
    2.2125   -6.5042    0.0000 O   0  0  0  0  0  0  0  0  0  0  0  0
    8.1375   -3.7167    0.0000 O   0  0  0  0  0  0  0  0  0  0  0  0
    6.5417   -3.2167    0.0000 C   0  0  0  0  0  0  0  0  0  0  0  0
    4.3542   -3.5875    0.0000 O   0  0  0  0  0  0  0  0  0  0  0  0
    4.3625   -4.4250    0.0000 C   0  0  0  0  0  0  0  0  0  0  0  0
    4.6125   -1.6792    0.0000 Na  0  0  0  0  0 15  0  0  0  0  0  0
    4.7375    0.0958    0.0000 Na  0  0  0  0  0 15  0  0  0  0  0  0
    8.6000   -4.4167    0.0000 C   0  0  0  0  0  0  0  0  0  0  0  0
  2  9  1  0
  3  2  1  0
  4  1  1  0
  5  1  1  0
  6  4  1  0
  7  3  1  0
  8 20  1  0
  9 10  1  0
 10  1  1  0
 11  5  1  0
 12  3  1  0
 13  4  1  0
 14  5  1  0
 15  7  2  0
 16  6  1  0
 17 12  2  0
 18 17  1  0
 19 14  1  0
 20 19  1  0
 21  8  1  0
 22  8  1  0
 23 16  1  0
 24  8  2  0
  2 25  1  6
 26 14  2  0
 27 18  2  0
  5 28  1  6
  1 29  1  1
  9 30  1  1
  3 31  1  1
 11 34  1  6
 11 13  1  0
  2  6  1  0
  7 23  1  0
 15 18  1  0
M  CHG  4  21  -1  22  -1  32   1  33   1
M  END
>  <ID>  (361) 


>  <MOLENAME>  (361) 
DEXAMETHASONE SODIUM PHOSPHATE

>  <therap>  (361) 
glucocorticoid, antiinflammatory

>  <ref>  (361) 
Arzneim. Forsch. (1972), 22(2), 402-10; Arthritis Rheum. (1966), 9(3), 394-404; Steroids (1963), 2(6), 597-603

>  <cas#>  (361) 
2392-39-4, 312-93-6 [dexamethasone 21-(dihydrogen phosphate)]

>  <source>  (361) 
semisynthetic

>  <status>  (361) 
USP, BAN, JAN

>  <tradename>  (361) 
HEXADROL

>  <SMILES>  (361) 
C[C@@H]1CC2C3CCC4=CC(=O)C=C[C@]4(C)[C@@]3(F)[C@@H](O)C[C@]2(C)[C@@]1(O)C(=O)COP(=O)(O)O

>  <standardized_failed>  (361) 
False

$$$$

     RDKit          2D

 16 17  0  0  0  0  0  0  0  0999 V2000
    6.7542   -1.7125    0.0000 C   0  0  0  0  0  0  0  0  0  0  0  0
    3.8667   -1.0000    0.0000 C   0  0  0  0  0  0  0  0  0  0  0  0
    6.3417   -2.4292    0.0000 O   0  0  0  0  0  0  0  0  0  0  0  0
    3.0458   -1.0000    0.0000 C   0  0  0  0  0  0  0  0  0  0  0  0
    4.2792   -1.7167    0.0000 C   0  0  0  0  0  0  0  0  0  0  0  0
    4.2750   -0.2875    0.0000 C   0  0  0  0  0  0  0  0  0  0  0  0
    6.3417   -1.0000    0.0000 C   0  0  0  0  0  0  0  0  0  0  0  0
    5.5167   -1.0000    0.0000 C   0  0  0  0  0  0  0  0  0  0  0  0
    7.5792   -1.7125    0.0000 O   0  0  0  0  0  0  0  0  0  0  0  0
    5.1000   -0.2833    0.0000 C   0  0  0  0  0  0  0  0  0  0  0  0
    5.1000   -1.7167    0.0000 C   0  0  0  0  0  0  0  0  0  0  0  0
    2.6333   -1.7125    0.0000 C   0  0  0  0  0  0  0  0  0  0  0  0
    2.6333   -0.2875    0.0000 C   0  0  0  0  0  0  0  0  0  0  0  0
    1.8083   -1.7125    0.0000 C   0  0  0  0  0  0  0  0  0  0  0  0
    1.8083   -0.2917    0.0000 C   0  0  0  0  0  0  0  0  0  0  0  0
    1.4000   -1.0042    0.0000 C   0  0  0  0  0  0  0  0  0  0  0  0
  2  6  2  0
  3  1  2  0
  4  2  1  0
  5 11  2  0
  6 10  1  0
  7  1  1  0
  8  7  1  0
  9  1  1  0
 10  8  2  0
 11  8  1  0
 12  4  2  0
 13  4  1  0
 14 12  1  0
 15 13  2  0
 16 15  1  0
  5  2  1  0
 14 16  2  0
M  END
>  <ID>  (362) 


>  <MOLENAME>  (362) 
FELBINAC

>  <therap>  (362) 
antiinflammatory

>  <ref>  (362) 
Inflammation 1:415 (1976); Invest Opthalmol  15:104 (`976)

>  <cas#>  (362) 
5728-52-9

>  <source>  (362) 
synthetic

>  <status>  (362) 
USAN, INN, BAN, JAN

>  <tradename>  (362) 
TRAXAM

>  <SMILES>  (362) 
O=C(O)Cc1ccc(-c2ccccc2)cc1

>  <standardized_failed>  (362) 
False

$$$$

     RDKit          2D

 13 15  0  0  0  0  0  0  0  0999 V2000
    3.3542   -1.6167    0.0000 S   0  0  0  0  0  0  0  0  0  0  0  0
    2.6417   -1.8417    0.0000 C   0  0  0  0  0  0  0  0  0  0  0  0
    3.7917   -2.2292    0.0000 C   0  0  0  0  0  0  0  0  0  0  0  0
    3.3542   -2.8250    0.0000 C   0  0  0  0  0  0  0  0  0  0  0  0
    2.6417   -2.5917    0.0000 C   0  0  0  0  0  0  0  0  0  0  0  0
    3.6542   -3.5125    0.0000 C   0  0  0  0  0  0  0  0  0  0  0  0
    1.9917   -2.9667    0.0000 C   0  0  0  0  0  0  0  0  0  0  0  0
    4.5375   -2.3042    0.0000 C   0  0  0  0  0  0  0  0  0  0  0  0
    1.9917   -1.4667    0.0000 C   0  0  0  0  0  0  0  0  0  0  0  0
    1.3417   -2.5917    0.0000 C   0  0  0  0  0  0  0  0  0  0  0  0
    4.4042   -3.5917    0.0000 C   0  0  0  0  0  0  0  0  0  0  0  0
    1.3417   -1.8417    0.0000 C   0  0  0  0  0  0  0  0  0  0  0  0
    4.8417   -2.9917    0.0000 C   0  0  0  0  0  0  0  0  0  0  0  0
  2  1  1  0
  3  1  1  0
  4  3  2  0
  5  2  2  0
  6  4  1  0
  7  5  1  0
  8  3  1  0
  9  2  1  0
 10 12  1  0
 11 13  1  0
 12  9  2  0
 13  8  2  0
  4  5  1  0
 11  6  2  0
 10  7  2  0
M  END
>  <ID>  (363) 


>  <MOLENAME>  (363) 
DIBENZOTHIOPHENE

>  <therap>  (363) 
keratolytic

>  <ref>  (363) 
Polycyclic Aromat. Compd. (2004), 24(4-5), 733-742; Mutat. Res., Genet. Toxicol. Test. (1984), 135(2), 97-103; Environ. Toxicol. Chem. (2005), 24(10), 2526-2532

>  <cas#>  (363) 
132-65-0

>  <source>  (363) 
synthetic

>  <status>  (363) 
USAN

>  <tradename>  (363) 
nan

>  <SMILES>  (363) 
c1cc2c(cc1)c1c(cccc1)s2

>  <standardized_failed>  (363) 
False

$$$$

     RDKit          2D

 26 26  0  0  0  0  0  0  0  0999 V2000
    1.6667    0.0083    0.0000 C   0  0  0  0  0  0  0  0  0  0  0  0
    1.6667    1.5083    0.0000 N   0  0  0  0  0  0  0  0  0  0  0  0
    1.6667   -0.7417    0.0000 C   0  0  0  0  0  0  0  0  0  0  0  0
    1.0250    0.3833    0.0000 C   0  0  0  0  0  0  0  0  0  0  0  0
    1.0250    1.1333    0.0000 C   0  0  0  0  0  0  0  0  0  0  0  0
    2.3167    1.1333    0.0000 C   0  0  0  0  0  0  0  0  0  0  0  0
    2.3167    0.3833    0.0000 C   0  0  0  0  0  0  0  0  0  0  0  0
    1.0250   -1.1167    0.0000 O   0  0  0  0  0  0  0  0  0  0  0  0
    2.4375   -1.2417    0.0000 N   0  0  0  0  0  0  0  0  0  0  0  0
    4.7042   -1.2375    0.0000 N   0  0  0  0  0  0  0  0  0  0  0  0
    2.9750    1.5125    0.0000 O   0  0  0  0  0  0  0  0  0  0  0  0
    7.5125   -2.0292    0.0000 Cl  0  0  0  0  0  0  0  0  0  0  0  0
    3.4042   -1.2375    0.0000 C   0  0  0  0  0  0  0  0  0  0  0  0
    0.3792    0.0083    0.0000 C   0  0  0  0  0  0  0  0  0  0  0  0
    0.3792    1.5083    0.0000 C   0  0  0  0  0  0  0  0  0  0  0  0
    4.0542   -0.8625    0.0000 C   0  0  0  0  0  0  0  0  0  0  0  0
    5.3500   -0.8625    0.0000 C   0  0  0  0  0  0  0  0  0  0  0  0
    4.7042   -1.9875    0.0000 C   0  0  0  0  0  0  0  0  0  0  0  0
    3.6250    1.1375    0.0000 C   0  0  0  0  0  0  0  0  0  0  0  0
    4.2750    1.5083    0.0000 C   0  0  0  0  0  0  0  0  0  0  0  0
    4.9250    1.1333    0.0000 C   0  0  0  0  0  0  0  0  0  0  0  0
    4.0542   -2.3625    0.0000 C   0  0  0  0  0  0  0  0  0  0  0  0
    6.0000   -1.2375    0.0000 C   0  0  0  0  0  0  0  0  0  0  0  0
   -0.2708    0.3833    0.0000 C   0  0  0  0  0  0  0  0  0  0  0  0
   -0.2708    1.1333    0.0000 C   0  0  0  0  0  0  0  0  0  0  0  0
    5.5292    1.4708    0.0000 C   0  0  0  0  0  0  0  0  0  0  0  0
  2  6  1  0
  3  1  1  0
  4  1  2  0
  5  4  1  0
  6  7  2  0
  7  1  1  0
  8  3  2  0
  9  3  1  0
 10 16  1  0
 11  6  1  0
 13  9  1  0
 14  4  1  0
 15  5  1  0
 16 13  1  0
 17 10  1  0
 18 10  1  0
 19 11  1  0
 20 19  1  0
 21 20  1  0
 22 18  1  0
 23 17  1  0
 24 14  2  0
 25 24  1  0
 26 21  1  0
  5  2  2  0
 25 15  2  0
M  END
>  <ID>  (364) 


>  <MOLENAME>  (364) 
DIBUCAINE HYDROCHLORIDE

>  <therap>  (364) 
anesthetic (local)

>  <ref>  (364) 
Pharmazie (1972), 27(8), 522-3; Arzneim. Forsch. (1958), 8, 181-90; N. Engl. J. Med. (1960), 263, 748-50,963-5

>  <cas#>  (364) 
61-12-1, 85-79-0 [dibucaine]

>  <source>  (364) 
synthetic

>  <status>  (364) 
USP, INN, BAN

>  <tradename>  (364) 
NUPERCAINAL

>  <SMILES>  (364) 
CCCCOc1cc(C(=O)NCCN(CC)CC)c2ccccc2n1

>  <standardized_failed>  (364) 
False

$$$$

     RDKit          2D

 20 20  0  0  0  0  0  0  0  0999 V2000
    1.8917   -3.1750    0.0000 N   0  0  0  0  0  0  0  0  0  0  0  0
    1.1792   -3.5875    0.0000 C   0  0  0  0  0  0  0  0  0  0  0  0
    1.8917   -2.3500    0.0000 C   0  0  0  0  0  0  0  0  0  0  0  0
    4.0292   -1.9375    0.0000 C   0  0  0  0  0  0  0  0  0  0  0  0
    2.6042   -1.9417    0.0000 C   0  0  0  0  0  0  0  0  0  0  0  0
    0.4667   -3.1667    0.0000 C   0  0  0  0  0  0  0  0  0  0  0  0
    1.1792   -4.4042    0.0000 C   0  0  0  0  0  0  0  0  0  0  0  0
    3.3167   -2.3500    0.0000 C   0  0  0  0  0  0  0  0  0  0  0  0
    4.7417   -2.3417    0.0000 O   0  0  0  0  0  0  0  0  0  0  0  0
    4.0250   -1.1125    0.0000 O   0  0  0  0  0  0  0  0  0  0  0  0
    0.4667   -2.3417    0.0000 Cl  0  0  0  0  0  0  0  0  0  0  0  0
    1.8917   -4.8167    0.0000 Cl  0  0  0  0  0  0  0  0  0  0  0  0
    5.1500   -1.3375    0.0000 Na  0  0  0  0  0 15  0  0  0  0  0  0
   -0.2500   -4.4042    0.0000 C   0  0  0  0  0  0  0  0  0  0  0  0
    1.1792   -1.9417    0.0000 C   0  0  0  0  0  0  0  0  0  0  0  0
    0.4625   -4.8167    0.0000 C   0  0  0  0  0  0  0  0  0  0  0  0
   -0.2458   -3.5792    0.0000 C   0  0  0  0  0  0  0  0  0  0  0  0
    2.6042   -1.1167    0.0000 C   0  0  0  0  0  0  0  0  0  0  0  0
    1.1792   -1.1167    0.0000 C   0  0  0  0  0  0  0  0  0  0  0  0
    1.8917   -0.7000    0.0000 C   0  0  0  0  0  0  0  0  0  0  0  0
  2  1  1  0
  3  1  1  0
  4  8  1  0
  5  3  2  0
  6  2  2  0
  7  2  1  0
  8  5  1  0
  9  4  1  0
 10  4  2  0
 11  6  1  0
 12  7  1  0
 14 16  1  0
 15  3  1  0
 16  7  2  0
 17  6  1  0
 18  5  1  0
 19 15  2  0
 20 19  1  0
 14 17  2  0
 20 18  2  0
M  CHG  2   9  -1  13   1
M  END
>  <ID>  (365) 


>  <MOLENAME>  (365) 
DICLOFENAC SODIUM

>  <therap>  (365) 
antiinflammatory

>  <ref>  (365) 
Drugs (1980), 20(1), 24-48; Biochem. Pharmacol. (1975), 24(5), 641-3; Experientia (1973), 29(4), 450-2

>  <cas#>  (365) 
15307-79-6

>  <source>  (365) 
synthetic; GP-45840

>  <status>  (365) 
USP, JAN

>  <tradename>  (365) 
VOLATREN

>  <SMILES>  (365) 
O=C(O)Cc1c(Nc2c(Cl)cccc2Cl)cccc1

>  <standardized_failed>  (365) 
False

$$$$

     RDKit          2D

 31 33  0  0  0  0  0  0  0  0999 V2000
    8.0417   -3.7875    0.0000 N   0  0  0  0  0  0  0  0  0  0  0  0
    8.0417   -4.6125    0.0000 C   0  0  0  0  0  0  0  0  0  0  0  0
    7.2167   -3.7875    0.0000 C   0  0  0  0  0  0  0  0  0  0  0  0
    7.2167   -4.6125    0.0000 C   0  0  0  0  0  0  0  0  0  0  0  0
    5.4917   -6.9375    0.0000 C   0  0  0  0  0  0  0  0  0  0  0  0
    5.8667   -6.2167    0.0000 C   0  0  0  0  0  0  0  0  0  0  0  0
    8.8250   -3.5292    0.0000 C   0  0  0  0  0  0  0  0  0  0  0  0
    8.8250   -4.8667    0.0000 S   0  0  0  0  0  0  0  0  0  0  0  0
    6.6542   -6.0042    0.0000 C   0  0  0  0  0  0  0  0  0  0  0  0
    4.6750   -6.8000    0.0000 N   0  0  0  0  0  0  0  0  0  0  0  0
    9.3042   -4.2042    0.0000 C   0  0  0  0  0  0  0  0  0  0  0  0
    6.6375   -5.1917    0.0000 N   0  0  0  0  0  0  0  0  0  0  0  0
    5.8667   -7.5875    0.0000 C   0  0  0  0  0  0  0  0  0  0  0  0
    4.5542   -6.0000    0.0000 O   0  0  0  0  0  0  0  0  0  0  0  0
    5.2792   -5.6292    0.0000 C   0  0  0  0  0  0  0  0  0  0  0  0
    9.0792   -2.7417    0.0000 C   0  0  0  0  0  0  0  0  0  0  0  0
    6.6375   -3.2042    0.0000 O   0  0  0  0  0  0  0  0  0  0  0  0
    6.6167   -7.5875    0.0000 C   0  0  0  0  0  0  0  0  0  0  0  0
    5.4875   -8.2292    0.0000 C   0  0  0  0  0  0  0  0  0  0  0  0
    7.2625   -6.2792    0.0000 O   0  0  0  0  0  0  0  0  0  0  0  0
    9.8792   -2.5667    0.0000 O   0  0  0  0  0  0  0  0  0  0  0  0
    8.5250   -2.1292    0.0000 O   0  0  0  0  0  0  0  0  0  0  0  0
    6.9542   -6.9667    0.0000 Cl  0  0  0  0  0  0  0  0  0  0  0  0
    4.7292   -8.2292    0.0000 Cl  0  0  0  0  0  0  0  0  0  0  0  0
    9.4375   -5.0167    0.0000 C   0  0  0  0  0  0  0  0  0  0  0  0
   10.1292   -4.1667    0.0000 C   0  0  0  0  0  0  0  0  0  0  0  0
   10.5417   -3.2750    0.0000 Na  0  0  0  0  0 15  0  0  0  0  0  0
    5.4042   -4.8125    0.0000 C   0  0  0  0  0  0  0  0  0  0  0  0
    6.6125   -8.8792    0.0000 C   0  0  0  0  0  0  0  0  0  0  0  0
    6.9917   -8.2292    0.0000 C   0  0  0  0  0  0  0  0  0  0  0  0
    5.8625   -8.8792    0.0000 C   0  0  0  0  0  0  0  0  0  0  0  0
  2  1  1  0
  3  1  1  0
  4  3  1  0
  5  6  1  0
  6  9  1  0
  7  1  1  0
  2  8  1  6
  9 12  1  0
 10  5  2  0
 11  7  1  0
  4 12  1  6
 13  5  1  0
 14 15  1  0
 15  6  2  0
  7 16  1  1
 17  3  2  0
 18 13  2  0
 19 13  1  0
 20  9  2  0
 21 16  1  0
 22 16  2  0
 23 18  1  0
 24 19  1  0
 25 11  1  0
 26 11  1  0
 28 15  1  0
 29 31  1  0
 30 18  1  0
 31 19  2  0
 11  8  1  0
  4  2  1  0
 14 10  1  0
 30 29  2  0
M  CHG  2  21  -1  27   1
M  END
>  <ID>  (366) 


>  <MOLENAME>  (366) 
DICLOXACILLIN SODIUM

>  <therap>  (366) 
antibacterial

>  <ref>  (366) 
Chemotherapy (1976), 22(3-4), 183-9; Antimicrob. Agents Chemother. (1965), 937-46; Antimicrob. Agents Chemother. (1965), (Oct.), 257-62

>  <cas#>  (366) 
13412-64-1, 343-55-5 [anhydrous], 3116-76-5 [dicloxacillin]

>  <source>  (366) 
semisynthetic; P-1011

>  <status>  (366) 
USAN, INN, BAN

>  <tradename>  (366) 
DYNAPEN

>  <SMILES>  (366) 
Cc1c(C(=O)N[C@@H]2C(=O)N3[C@@H](C(=O)O)C(C)(C)S[C@H]23)c(-c2c(Cl)cccc2Cl)no1

>  <standardized_failed>  (366) 
False

$$$$

     RDKit          2D

 25 28  0  0  0  0  0  0  0  0999 V2000
    2.3542   -2.5292    0.0000 C   0  0  0  0  0  0  0  0  0  0  0  0
    4.1625   -2.1167    0.0000 C   0  0  0  0  0  0  0  0  0  0  0  0
    1.9667   -3.1792    0.0000 C   0  0  0  0  0  0  0  0  0  0  0  0
    4.8042   -2.4917    0.0000 C   0  0  0  0  0  0  0  0  0  0  0  0
    1.9792   -1.8750    0.0000 C   0  0  0  0  0  0  0  0  0  0  0  0
    4.1625   -1.3625    0.0000 C   0  0  0  0  0  0  0  0  0  0  0  0
    3.0792   -2.5625    0.0000 C   0  0  0  0  0  0  0  0  0  0  0  0
    1.2292   -1.8667    0.0000 O   0  0  0  0  0  0  0  0  0  0  0  0
    4.8042   -0.9792    0.0000 O   0  0  0  0  0  0  0  0  0  0  0  0
    1.2125   -3.1667    0.0000 C   0  0  0  0  0  0  0  0  0  0  0  0
    5.4625   -2.1167    0.0000 C   0  0  0  0  0  0  0  0  0  0  0  0
    0.8417   -2.5125    0.0000 C   0  0  0  0  0  0  0  0  0  0  0  0
    5.4625   -1.3625    0.0000 C   0  0  0  0  0  0  0  0  0  0  0  0
    2.3667   -1.2292    0.0000 O   0  0  0  0  0  0  0  0  0  0  0  0
    3.5042   -0.9875    0.0000 O   0  0  0  0  0  0  0  0  0  0  0  0
    4.8042   -3.2417    0.0000 O   0  0  0  0  0  0  0  0  0  0  0  0
    2.3292   -3.8375    0.0000 O   0  0  0  0  0  0  0  0  0  0  0  0
    6.1167   -2.4917    0.0000 C   0  0  0  0  0  0  0  0  0  0  0  0
    0.8292   -3.8167    0.0000 C   0  0  0  0  0  0  0  0  0  0  0  0
    6.1167   -0.9792    0.0000 C   0  0  0  0  0  0  0  0  0  0  0  0
    0.0917   -2.5042    0.0000 C   0  0  0  0  0  0  0  0  0  0  0  0
    0.0792   -3.8042    0.0000 C   0  0  0  0  0  0  0  0  0  0  0  0
    6.7667   -2.1167    0.0000 C   0  0  0  0  0  0  0  0  0  0  0  0
   -0.2958   -3.1500    0.0000 C   0  0  0  0  0  0  0  0  0  0  0  0
    6.7667   -1.3625    0.0000 C   0  0  0  0  0  0  0  0  0  0  0  0
  2  7  1  0
  3  1  2  0
  4  2  2  0
  5  1  1  0
  6  2  1  0
  7  1  1  0
  8  5  1  0
  9  6  1  0
 10  3  1  0
 11  4  1  0
 12  8  1  0
 13  9  1  0
 14  5  2  0
 15  6  2  0
 16  4  1  0
 17  3  1  0
 18 11  2  0
 19 10  2  0
 20 13  2  0
 21 12  2  0
 22 19  1  0
 23 18  1  0
 24 21  1  0
 25 20  1  0
 12 10  1  0
 13 11  1  0
 22 24  2  0
 25 23  2  0
M  END
>  <ID>  (367) 


>  <MOLENAME>  (367) 
DICUMAROL

>  <therap>  (367) 
anticoagulant

>  <ref>  (367) 
J Biol Chem 138:21, 513, 529 (1041); 142:941 (1942)

>  <cas#>  (367) 
66-76-2

>  <source>  (367) 
synthetic

>  <status>  (367) 
USAN, INN

>  <tradename>  (367) 
DICUMOL

>  <SMILES>  (367) 
O=c1oc2ccccc2c(O)c1Cc1c(O)c2ccccc2oc1=O

>  <standardized_failed>  (367) 
False

$$$$

     RDKit          2D

 23 23  0  0  0  0  0  0  0  0999 V2000
    5.8500   -1.6875    0.0000 C   0  0  0  0  0  0  0  0  0  0  0  0
    5.8500   -2.5167    0.0000 C   0  0  0  0  0  0  0  0  0  0  0  0
    5.1375   -2.9292    0.0000 O   0  0  0  0  0  0  0  0  0  0  0  0
    6.6667   -1.5667    0.0000 C   0  0  0  0  0  0  0  0  0  0  0  0
    6.5667   -2.9292    0.0000 O   0  0  0  0  0  0  0  0  0  0  0  0
    7.2792   -5.0000    0.0000 N   0  0  0  0  0  0  0  0  0  0  0  0
    8.3250   -3.8417    0.0000 Cl  0  0  0  0  0  0  0  0  0  0  0  0
    6.0625   -0.8875    0.0000 C   0  0  0  0  0  0  0  0  0  0  0  0
    5.0542   -1.9042    0.0000 C   0  0  0  0  0  0  0  0  0  0  0  0
    6.5667   -3.7542    0.0000 C   0  0  0  0  0  0  0  0  0  0  0  0
    7.2792   -4.1667    0.0000 C   0  0  0  0  0  0  0  0  0  0  0  0
    6.5667   -5.4125    0.0000 C   0  0  0  0  0  0  0  0  0  0  0  0
    7.9917   -5.4125    0.0000 C   0  0  0  0  0  0  0  0  0  0  0  0
    6.9750   -0.8000    0.0000 C   0  0  0  0  0  0  0  0  0  0  0  0
    7.1875   -2.2125    0.0000 C   0  0  0  0  0  0  0  0  0  0  0  0
    4.4667   -1.3167    0.0000 C   0  0  0  0  0  0  0  0  0  0  0  0
    5.4792   -0.3042    0.0000 C   0  0  0  0  0  0  0  0  0  0  0  0
    5.8500   -5.0000    0.0000 C   0  0  0  0  0  0  0  0  0  0  0  0
    7.9917   -6.2417    0.0000 C   0  0  0  0  0  0  0  0  0  0  0  0
    8.0042   -2.0875    0.0000 C   0  0  0  0  0  0  0  0  0  0  0  0
    7.7917   -0.6792    0.0000 C   0  0  0  0  0  0  0  0  0  0  0  0
    8.3042   -1.3250    0.0000 C   0  0  0  0  0  0  0  0  0  0  0  0
    4.6792   -0.5167    0.0000 C   0  0  0  0  0  0  0  0  0  0  0  0
  2  1  1  0
  3  2  2  0
  4  1  1  0
  5  2  1  0
  6 11  1  0
  8  1  1  0
  9  1  1  0
 10  5  1  0
 11 10  1  0
 12  6  1  0
 13  6  1  0
 14  4  1  0
 15  4  1  0
 16  9  1  0
 17  8  1  0
 18 12  1  0
 19 13  1  0
 20 15  1  0
 21 14  1  0
 22 21  1  0
 23 17  1  0
 16 23  1  0
 20 22  1  0
M  END
>  <ID>  (368) 


>  <MOLENAME>  (368) 
DICYCLOMINE HYDROCHLORIDE

>  <therap>  (368) 
anticholinergic

>  <ref>  (368) 
Br. J. Pharmacol. (1990), 99(4), 753-61; J. Pharmacol. Exp. Ther. (1964), 146(3), 354-8; J. Am. Chem. Soc. (1947), 69, 2902-6

>  <cas#>  (368) 
67-92-5, 77-19-0 [dicyclomine]

>  <source>  (368) 
synthetic

>  <status>  (368) 
USP, INN, BAN, JAN

>  <tradename>  (368) 
BENTYL

>  <SMILES>  (368) 
CCN(CC)CCOC(=O)C1(C2CCCCC2)CCCCC1

>  <standardized_failed>  (368) 
False

$$$$

     RDKit          2D

 20 21  0  0  0  0  0  0  0  0999 V2000
    5.5500   -4.2917    0.0000 C   0  0  0  0  0  0  0  0  0  0  0  0
    5.9250   -3.6417    0.0000 C   0  0  0  0  0  0  0  0  0  0  0  0
    4.8000   -4.2917    0.0000 C   0  0  0  0  0  0  0  0  0  0  0  0
    6.6750   -3.6417    0.0000 C   0  0  0  0  0  0  0  0  0  0  0  0
    5.9250   -4.9375    0.0000 C   0  0  0  0  0  0  0  0  0  0  0  0
    5.5500   -2.9917    0.0000 C   0  0  0  0  0  0  0  0  0  0  0  0
    4.4250   -3.6417    0.0000 C   0  0  0  0  0  0  0  0  0  0  0  0
    4.4250   -4.9375    0.0000 C   0  0  0  0  0  0  0  0  0  0  0  0
    7.0500   -4.2875    0.0000 C   0  0  0  0  0  0  0  0  0  0  0  0
    7.0500   -2.9917    0.0000 C   0  0  0  0  0  0  0  0  0  0  0  0
    8.1750   -3.6417    0.0000 C   0  0  0  0  0  0  0  0  0  0  0  0
    3.3000   -4.2917    0.0000 C   0  0  0  0  0  0  0  0  0  0  0  0
    7.8000   -4.2875    0.0000 C   0  0  0  0  0  0  0  0  0  0  0  0
    3.6750   -4.9375    0.0000 C   0  0  0  0  0  0  0  0  0  0  0  0
    7.8000   -2.9917    0.0000 C   0  0  0  0  0  0  0  0  0  0  0  0
    3.6750   -3.6417    0.0000 C   0  0  0  0  0  0  0  0  0  0  0  0
    2.5500   -4.2917    0.0000 O   0  0  0  0  0  0  0  0  0  0  0  0
    8.9250   -3.6417    0.0000 O   0  0  0  0  0  0  0  0  0  0  0  0
    5.5500   -5.5875    0.0000 C   0  0  0  0  0  0  0  0  0  0  0  0
    5.9250   -2.3417    0.0000 C   0  0  0  0  0  0  0  0  0  0  0  0
  2  1  1  0
  3  1  1  0
  4  2  1  0
  5  1  2  0
  6  2  2  0
  7  3  2  0
  8  3  1  0
  9  4  2  0
 10  4  1  0
 11 15  1  0
 12 14  1  0
 13  9  1  0
 14  8  2  0
 15 10  2  0
 16  7  1  0
 17 12  1  0
 18 11  1  0
 19  5  1  0
 20  6  1  0
 12 16  2  0
 11 13  2  0
M  END
>  <ID>  (369) 


>  <MOLENAME>  (369) 
DIENESTROL

>  <therap>  (369) 
estrogen

>  <ref>  (369) 
Arch. Toxicol. Suppl. (1985), 833-42; Crit. Rev. Biochem. (1981), 10(3), 171-212; Am. J. Med. (1947), 2(3), 251

>  <cas#>  (369) 
84-17-3, 13029-44-2 [//E,E//]

>  <source>  (369) 
synthetic

>  <status>  (369) 
USP, INN, BAN

>  <tradename>  (369) 
ESTRAGUARD

>  <SMILES>  (369) 
C/C=C(C(=C/C)/c1ccc(O)cc1)\c1ccc(O)cc1

>  <standardized_failed>  (369) 
False

$$$$

     RDKit          2D

 27 26  0  0  0  0  0  0  0  0999 V2000
    4.9292   -0.0500    0.0000 C   0  0  0  0  0  0  0  0  0  0  0  0
    0.6792   -1.4167    0.0000 C   0  0  0  0  0  0  0  0  0  0  0  0
    4.1750   -0.0500    0.0000 N   0  0  0  0  0  0  0  0  0  0  0  0
    0.2167   -1.1500    0.0000 C   0  0  0  0  0  0  0  0  0  0  0  0
    1.1542   -1.1417    0.0000 C   0  0  0  0  0  0  0  0  0  0  0  0
    0.6792   -1.9625    0.0000 C   0  0  0  0  0  0  0  0  0  0  0  0
    1.6167   -1.4125    0.0000 C   0  0  0  0  0  0  0  0  0  0  0  0
   -0.2583   -1.4250    0.0000 C   0  0  0  0  0  0  0  0  0  0  0  0
    2.6792   -0.0500    0.0000 N   0  0  0  0  0  0  0  0  0  0  0  0
    5.3042    0.6000    0.0000 N   0  0  0  0  0  0  0  0  0  0  0  0
    5.3042   -0.7000    0.0000 O   0  0  0  0  0  0  0  0  0  0  0  0
    3.8000    0.6000    0.0000 C   0  0  0  0  0  0  0  0  0  0  0  0
    3.8000   -0.7000    0.0000 C   0  0  0  0  0  0  0  0  0  0  0  0
    0.2125   -2.2292    0.0000 O   0  0  0  0  0  0  0  0  0  0  0  0
   -0.7250   -1.1500    0.0000 O   0  0  0  0  0  0  0  0  0  0  0  0
    1.6167   -1.9625    0.0000 O   0  0  0  0  0  0  0  0  0  0  0  0
    3.0542    0.6000    0.0000 C   0  0  0  0  0  0  0  0  0  0  0  0
    3.0542   -0.7000    0.0000 C   0  0  0  0  0  0  0  0  0  0  0  0
    0.6792   -0.8750    0.0000 O   0  0  0  0  0  0  0  0  0  0  0  0
    1.1417   -2.2292    0.0000 O   0  0  0  0  0  0  0  0  0  0  0  0
   -0.2583   -1.9625    0.0000 O   0  0  0  0  0  0  0  0  0  0  0  0
    2.0917   -1.1417    0.0000 O   0  0  0  0  0  0  0  0  0  0  0  0
    1.9292   -0.0500    0.0000 C   0  0  0  0  0  0  0  0  0  0  0  0
    6.0542    0.6000    0.0000 C   0  0  0  0  0  0  0  0  0  0  0  0
    4.9292    1.2375    0.0000 C   0  0  0  0  0  0  0  0  0  0  0  0
    6.4292   -0.0500    0.0000 C   0  0  0  0  0  0  0  0  0  0  0  0
    5.3042    1.8958    0.0000 C   0  0  0  0  0  0  0  0  0  0  0  0
  3  1  1  0
  4  2  1  0
  5  2  1  0
  6  2  1  0
  7  5  1  0
  8  4  1  0
  9 18  1  0
 10  1  1  0
 11  1  2  0
 12  3  1  0
 13  3  1  0
 14  6  2  0
 15  8  2  0
 16  7  2  0
 17 12  1  0
 18 13  1  0
 19  2  1  0
 20  6  1  0
 21  8  1  0
 22  7  1  0
 23  9  1  0
 24 10  1  0
 25 10  1  0
 26 24  1  0
 27 25  1  0
  9 17  1  0
M  END
>  <ID>  (370) 


>  <MOLENAME>  (370) 
DIETHYLCARBAMAZINE CITRATE

>  <therap>  (370) 
anthelmintic

>  <ref>  (370) 
Parasitology (1992), 105 Suppl, S49-60; J. Lab. Clin. Med. (1948), 33(1), 216-35; J. Am. Med. Assoc. (1947), 135(11), 708-12

>  <cas#>  (370) 
1642-54-2, 90-89-1 [diethylcarbamazine]

>  <source>  (370) 
synthetic

>  <status>  (370) 
USP, INN, BAN, JAN

>  <tradename>  (370) 
HETRAZAN

>  <SMILES>  (370) 
CCN(CC)C(=O)N1CCN(C)CC1

>  <standardized_failed>  (370) 
False

$$$$

     RDKit          2D

 20 21  0  0  0  0  0  0  0  0999 V2000
    3.5042   -0.8292    0.0000 C   0  0  0  0  0  0  0  0  0  0  0  0
    3.8792   -0.1792    0.0000 C   0  0  0  0  0  0  0  0  0  0  0  0
    2.7542   -0.8292    0.0000 C   0  0  0  0  0  0  0  0  0  0  0  0
    4.6292   -0.1792    0.0000 C   0  0  0  0  0  0  0  0  0  0  0  0
    2.3792   -0.1792    0.0000 C   0  0  0  0  0  0  0  0  0  0  0  0
    2.3792   -1.4750    0.0000 C   0  0  0  0  0  0  0  0  0  0  0  0
    5.0042   -0.8250    0.0000 C   0  0  0  0  0  0  0  0  0  0  0  0
    5.0042    0.4708    0.0000 C   0  0  0  0  0  0  0  0  0  0  0  0
    6.1292   -0.1792    0.0000 C   0  0  0  0  0  0  0  0  0  0  0  0
    1.2542   -0.8292    0.0000 C   0  0  0  0  0  0  0  0  0  0  0  0
    5.7542   -0.8250    0.0000 C   0  0  0  0  0  0  0  0  0  0  0  0
    1.6292   -1.4750    0.0000 C   0  0  0  0  0  0  0  0  0  0  0  0
    5.7542    0.4708    0.0000 C   0  0  0  0  0  0  0  0  0  0  0  0
    1.6292   -0.1792    0.0000 C   0  0  0  0  0  0  0  0  0  0  0  0
    3.5042    0.4708    0.0000 C   0  0  0  0  0  0  0  0  0  0  0  0
    3.8792   -1.4750    0.0000 C   0  0  0  0  0  0  0  0  0  0  0  0
    0.5042   -0.8292    0.0000 O   0  0  0  0  0  0  0  0  0  0  0  0
    6.8792   -0.1792    0.0000 O   0  0  0  0  0  0  0  0  0  0  0  0
    4.6292   -1.4750    0.0000 C   0  0  0  0  0  0  0  0  0  0  0  0
    3.8792    1.1208    0.0000 C   0  0  0  0  0  0  0  0  0  0  0  0
  2  1  2  0
  3  1  1  0
  4  2  1  0
  5  3  2  0
  6  3  1  0
  7  4  2  0
  8  4  1  0
  9 13  1  0
 10 12  1  0
 11  7  1  0
 12  6  2  0
 13  8  2  0
 14  5  1  0
 15  2  1  0
 16  1  1  0
 17 10  1  0
 18  9  1  0
 19 16  1  0
 20 15  1  0
 10 14  2  0
  9 11  2  0
M  END
>  <ID>  (371) 


>  <MOLENAME>  (371) 
DIETHYLSTILBESTROL

>  <therap>  (371) 
estrogen

>  <ref>  (371) 
APMIS (2000), 108(12), 793-804; Ann. Intern. Med. (1995), 122(10), 778-88; Eur. J. Cancer (1992), 28A(6-7), 1182-9

>  <cas#>  (371) 
56-53-1

>  <source>  (371) 
synthetic

>  <status>  (371) 
USP, INN, BAN

>  <tradename>  (371) 
STILBESTROL

>  <SMILES>  (371) 
CC/C(=C(/CC)c1ccc(O)cc1)c1ccc(O)cc1

>  <standardized_failed>  (371) 
False

$$$$

     RDKit          2D

 18 19  0  0  0  0  0  0  0  0999 V2000
    4.5375   -1.9167    0.0000 C   0  0  0  0  0  0  0  0  0  0  0  0
    3.7875   -1.9167    0.0000 C   0  0  0  0  0  0  0  0  0  0  0  0
    4.9167   -1.2625    0.0000 C   0  0  0  0  0  0  0  0  0  0  0  0
    3.4125   -2.5667    0.0000 C   0  0  0  0  0  0  0  0  0  0  0  0
    2.6625   -2.5667    0.0000 C   0  0  0  0  0  0  0  0  0  0  0  0
    2.2875   -3.2125    0.0000 C   0  0  0  0  0  0  0  0  0  0  0  0
    1.5375   -3.2125    0.0000 C   0  0  0  0  0  0  0  0  0  0  0  0
    4.9125   -2.5667    0.0000 C   0  0  0  0  0  0  0  0  0  0  0  0
    2.2875   -1.9167    0.0000 C   0  0  0  0  0  0  0  0  0  0  0  0
    3.7875   -3.2125    0.0000 C   0  0  0  0  0  0  0  0  0  0  0  0
    4.5417   -0.6167    0.0000 O   0  0  0  0  0  0  0  0  0  0  0  0
    4.5375   -3.2125    0.0000 C   0  0  0  0  0  0  0  0  0  0  0  0
    1.1625   -2.5667    0.0000 C   0  0  0  0  0  0  0  0  0  0  0  0
    2.6667   -3.8667    0.0000 F   0  0  0  0  0  0  0  0  0  0  0  0
    5.6667   -1.2625    0.0000 O   0  0  0  0  0  0  0  0  0  0  0  0
    1.5375   -1.9167    0.0000 C   0  0  0  0  0  0  0  0  0  0  0  0
    5.6625   -2.5667    0.0000 O   0  0  0  0  0  0  0  0  0  0  0  0
    0.4125   -2.5667    0.0000 F   0  0  0  0  0  0  0  0  0  0  0  0
  2  1  2  0
  3  1  1  0
  4  2  1  0
  5  4  1  0
  6  5  2  0
  7  6  1  0
  8  1  1  0
  9  5  1  0
 10 12  1  0
 11  3  2  0
 12  8  2  0
 13 16  1  0
 14  6  1  0
 15  3  1  0
 16  9  2  0
 17  8  1  0
 18 13  1  0
 10  4  2  0
  7 13  2  0
M  END
>  <ID>  (372) 


>  <MOLENAME>  (372) 
DIFLUNISAL

>  <therap>  (372) 
analgesic, antiinflammatory

>  <ref>  (372) 
J. Pharmacol. Exp. Ther. (1979), 211(3), 678-85; Eur. J. Rheumatol. Inflammation (1978), 1(3), 308-11; Br. J. Clin. Pharmacol. (1977), 4, Suppl. 1, 7-13

>  <cas#>  (372) 
22494-42-4

>  <source>  (372) 
synthetic

>  <status>  (372) 
USP, INN, BAN, JAN

>  <tradename>  (372) 
DOLOBID

>  <SMILES>  (372) 
O=C(O)c1cc(-c2c(F)cc(F)cc2)ccc1O

>  <standardized_failed>  (372) 
False

$$$$

     RDKit          2D

 54 61  0  0  0  0  0  0  0  0999 V2000
    8.9750   -1.2167    0.0000 C   0  0  0  0  0  0  0  0  0  0  0  0
    8.9750   -0.3875    0.0000 C   0  0  0  0  0  0  0  0  0  0  0  0
    6.8292   -1.6292    0.0000 C   0  0  0  0  0  0  0  0  0  0  0  0
    8.2542   -1.6292    0.0000 C   0  0  0  0  0  0  0  0  0  0  0  0
    7.5417   -1.2167    0.0000 C   0  0  0  0  0  0  0  0  0  0  0  0
   10.0917    0.6208    0.0000 C   0  0  0  0  0  0  0  0  0  0  0  0
    9.7542   -0.1292    0.0000 C   0  0  0  0  0  0  0  0  0  0  0  0
    2.5167   -1.6417    0.0000 C   0  0  0  0  0  0  0  0  0  0  0  0
   -0.3458   -2.5042    0.0000 C   0  0  0  0  0  0  0  0  0  0  0  0
    1.0667   -1.6625    0.0000 C   0  0  0  0  0  0  0  0  0  0  0  0
   -1.7875   -2.5292    0.0000 C   0  0  0  0  0  0  0  0  0  0  0  0
    3.9542   -2.4625    0.0000 C   0  0  0  0  0  0  0  0  0  0  0  0
    0.3542   -1.2542    0.0000 O   0  0  0  0  0  0  0  0  0  0  0  0
    3.9542   -1.6375    0.0000 O   0  0  0  0  0  0  0  0  0  0  0  0
   -1.8000   -1.7000    0.0000 O   0  0  0  0  0  0  0  0  0  0  0  0
    1.0875   -2.4917    0.0000 C   0  0  0  0  0  0  0  0  0  0  0  0
    3.2417   -2.8792    0.0000 C   0  0  0  0  0  0  0  0  0  0  0  0
   -2.5000   -2.9542    0.0000 C   0  0  0  0  0  0  0  0  0  0  0  0
    9.6542    1.3208    0.0000 C   0  0  0  0  0  0  0  0  0  0  0  0
    6.8292   -2.4542    0.0000 C   0  0  0  0  0  0  0  0  0  0  0  0
    0.3792   -2.9125    0.0000 C   0  0  0  0  0  0  0  0  0  0  0  0
    2.5250   -2.4667    0.0000 C   0  0  0  0  0  0  0  0  0  0  0  0
   -3.2333   -1.7250    0.0000 C   0  0  0  0  0  0  0  0  0  0  0  0
   -0.3583   -1.6792    0.0000 C   0  0  0  0  0  0  0  0  0  0  0  0
    3.2417   -1.2250    0.0000 C   0  0  0  0  0  0  0  0  0  0  0  0
   -3.2208   -2.5500    0.0000 C   0  0  0  0  0  0  0  0  0  0  0  0
   10.1792    1.9583    0.0000 C   0  0  0  0  0  0  0  0  0  0  0  0
   -2.5208   -1.2917    0.0000 C   0  0  0  0  0  0  0  0  0  0  0  0
    9.7542   -1.4667    0.0000 C   0  0  0  0  0  0  0  0  0  0  0  0
    8.2542    0.0250    0.0000 C   0  0  0  0  0  0  0  0  0  0  0  0
    1.7792   -1.2292    0.0000 O   0  0  0  0  0  0  0  0  0  0  0  0
   -1.0625   -2.9292    0.0000 O   0  0  0  0  0  0  0  0  0  0  0  0
    7.5417   -0.3875    0.0000 C   0  0  0  0  0  0  0  0  0  0  0  0
   10.9417    1.6500    0.0000 O   0  0  0  0  0  0  0  0  0  0  0  0
   10.2417   -0.8000    0.0000 C   0  0  0  0  0  0  0  0  0  0  0  0
    6.1167   -1.2167    0.0000 C   0  0  0  0  0  0  0  0  0  0  0  0
    8.2542   -2.4542    0.0000 C   0  0  0  0  0  0  0  0  0  0  0  0
   10.8917    0.8333    0.0000 C   0  0  0  0  0  0  0  0  0  0  0  0
    4.6792   -2.8750    0.0000 O   0  0  0  0  0  0  0  0  0  0  0  0
    6.1167   -2.8667    0.0000 C   0  0  0  0  0  0  0  0  0  0  0  0
    7.5417   -2.8667    0.0000 C   0  0  0  0  0  0  0  0  0  0  0  0
    9.9792    2.7708    0.0000 O   0  0  0  0  0  0  0  0  0  0  0  0
    5.4000   -2.4542    0.0000 C   0  0  0  0  0  0  0  0  0  0  0  0
    8.9792   -2.1792    0.0000 O   0  0  0  0  0  0  0  0  0  0  0  0
    5.4000   -1.6292    0.0000 C   0  0  0  0  0  0  0  0  0  0  0  0
   -3.9708   -1.3292    0.0000 O   0  0  0  0  0  0  0  0  0  0  0  0
    8.9667    0.4375    0.0000 C   0  0  0  0  0  0  0  0  0  0  0  0
    0.3917   -3.7375    0.0000 O   0  0  0  0  0  0  0  0  0  0  0  0
    1.8042   -2.8917    0.0000 O   0  0  0  0  0  0  0  0  0  0  0  0
   -3.9333   -2.9792    0.0000 O   0  0  0  0  0  0  0  0  0  0  0  0
    6.8292   -0.8000    0.0000 C   0  0  0  0  0  0  0  0  0  0  0  0
   -1.0875   -1.2667    0.0000 C   0  0  0  0  0  0  0  0  0  0  0  0
    3.2500   -0.4000    0.0000 C   0  0  0  0  0  0  0  0  0  0  0  0
   -2.5208   -0.4667    0.0000 C   0  0  0  0  0  0  0  0  0  0  0  0
  2  1  1  0
  3  5  1  0
  4  1  1  0
  5  4  1  0
  7  6  1  0
  7  2  1  0
  8 22  1  0
  9 21  1  0
 10 31  1  1
 11 32  1  1
 12 39  1  1
 13 10  1  0
 14 12  1  0
 15 11  1  0
 16 10  1  0
 17 12  1  0
 18 11  1  0
 19  6  2  0
 20 41  1  6
 21 16  1  0
 22 17  1  0
 23 26  1  0
 24 13  1  0
 25 14  1  0
 26 18  1  0
 27 19  1  0
 28 15  1  0
 29  1  1  0
 30  2  1  0
  8 31  1  6
  9 32  1  6
 33  5  1  0
 34 38  1  0
 35 29  1  0
 36  3  1  0
 37  4  1  0
 38  6  1  0
 43 39  1  1
 40 20  1  0
 41 37  1  0
 42 27  2  0
 43 40  1  0
  1 44  1  1
 45 36  1  0
 23 46  1  6
  2 47  1  1
 21 48  1  6
 22 49  1  6
 26 50  1  6
  3 51  1  1
 24 52  1  1
 25 53  1  1
 28 54  1  1
  7 35  1  1
 30 33  1  0
  3 20  1  0
 45 43  1  0
 34 27  1  0
 25  8  1  0
 24  9  1  0
 28 23  1  0
M  END
>  <ID>  (373) 


>  <MOLENAME>  (373) 
DIGITOXIN

>  <therap>  (373) 
inotropic, cardiotonic

>  <ref>  (373) 
Chem Rev 17: 187 (1935); Anal Profiles Drug Subst 3:149 (1974); Clin Pharmacokinet 2:292 (1977); Can J Chem 68:272 (1990)

>  <cas#>  (373) 
71-63-6

>  <source>  (373) 
Digitalis spp 

>  <status>  (373) 
USP, INN, BAN, JAN

>  <tradename>  (373) 
CRYSTODIGIN

>  <SMILES>  (373) 
C[C@H]1O[C@@H](O[C@H]2[C@@H](O)C[C@H](O[C@H]3[C@@H](O)C[C@H](O[C@H]4CC[C@]5(C)C6CC[C@]7(C)[C@@H](C8=CC(=O)OC8)CC[C@]7(O)C6CC[C@@H]5C4)O[C@@H]3C)O[C@@H]2C)C[C@H](O)[C@@H]1O

>  <standardized_failed>  (373) 
False

$$$$

     RDKit          2D

 55 62  0  0  0  0  0  0  0  0999 V2000
    8.1167    0.1250    0.0000 C   0  0  0  0  0  0  0  0  0  0  0  0
    8.1167    0.8500    0.0000 C   0  0  0  0  0  0  0  0  0  0  0  0
    6.8292    0.1250    0.0000 C   0  0  0  0  0  0  0  0  0  0  0  0
    6.1917   -0.2375    0.0000 C   0  0  0  0  0  0  0  0  0  0  0  0
    7.4792   -0.2375    0.0000 C   0  0  0  0  0  0  0  0  0  0  0  0
    8.8292    1.0833    0.0000 C   0  0  0  0  0  0  0  0  0  0  0  0
    7.4792    1.2208    0.0000 C   0  0  0  0  0  0  0  0  0  0  0  0
    8.9167    1.7125    0.0000 C   0  0  0  0  0  0  0  0  0  0  0  0
   -0.7875   -2.3417    0.0000 C   0  0  0  0  0  0  0  0  0  0  0  0
    2.4292   -2.4375    0.0000 C   0  0  0  0  0  0  0  0  0  0  0  0
   -2.4333   -2.3500    0.0000 C   0  0  0  0  0  0  0  0  0  0  0  0
    0.6917   -2.4292    0.0000 C   0  0  0  0  0  0  0  0  0  0  0  0
    6.8292    0.8500    0.0000 C   0  0  0  0  0  0  0  0  0  0  0  0
    3.9250   -2.4375    0.0000 C   0  0  0  0  0  0  0  0  0  0  0  0
    0.3167   -1.7917    0.0000 O   0  0  0  0  0  0  0  0  0  0  0  0
    3.5500   -1.8042    0.0000 O   0  0  0  0  0  0  0  0  0  0  0  0
   -2.8083   -1.7042    0.0000 O   0  0  0  0  0  0  0  0  0  0  0  0
    0.3167   -3.0625    0.0000 C   0  0  0  0  0  0  0  0  0  0  0  0
    3.5500   -3.0667    0.0000 C   0  0  0  0  0  0  0  0  0  0  0  0
   -2.8083   -2.9792    0.0000 C   0  0  0  0  0  0  0  0  0  0  0  0
    9.5792    2.1833    0.0000 C   0  0  0  0  0  0  0  0  0  0  0  0
    6.1917   -0.9667    0.0000 C   0  0  0  0  0  0  0  0  0  0  0  0
   -0.4333   -3.0625    0.0000 C   0  0  0  0  0  0  0  0  0  0  0  0
    2.8042   -3.0667    0.0000 C   0  0  0  0  0  0  0  0  0  0  0  0
   -3.9208   -2.3500    0.0000 C   0  0  0  0  0  0  0  0  0  0  0  0
    8.8292   -0.0917    0.0000 C   0  0  0  0  0  0  0  0  0  0  0  0
    2.8042   -1.8042    0.0000 C   0  0  0  0  0  0  0  0  0  0  0  0
   -0.4333   -1.7917    0.0000 C   0  0  0  0  0  0  0  0  0  0  0  0
   -3.5458   -2.9792    0.0000 C   0  0  0  0  0  0  0  0  0  0  0  0
    9.3250    2.9458    0.0000 C   0  0  0  0  0  0  0  0  0  0  0  0
   -3.5500   -1.7042    0.0000 C   0  0  0  0  0  0  0  0  0  0  0  0
    1.6167   -2.4250    0.0000 O   0  0  0  0  0  0  0  0  0  0  0  0
   -1.6250   -2.3375    0.0000 O   0  0  0  0  0  0  0  0  0  0  0  0
    8.5167    2.9458    0.0000 O   0  0  0  0  0  0  0  0  0  0  0  0
    9.2625    0.4958    0.0000 C   0  0  0  0  0  0  0  0  0  0  0  0
    5.5417    0.1250    0.0000 C   0  0  0  0  0  0  0  0  0  0  0  0
    7.4792   -0.9667    0.0000 C   0  0  0  0  0  0  0  0  0  0  0  0
    8.2542    2.1958    0.0000 C   0  0  0  0  0  0  0  0  0  0  0  0
    4.1542   -1.3667    0.0000 O   0  0  0  0  0  0  0  0  0  0  0  0
    5.5417   -1.3292    0.0000 C   0  0  0  0  0  0  0  0  0  0  0  0
    6.8292   -1.3292    0.0000 C   0  0  0  0  0  0  0  0  0  0  0  0
    8.1167   -0.4500    0.0000 O   0  0  0  0  0  0  0  0  0  0  0  0
    9.8042    3.5958    0.0000 O   0  0  0  0  0  0  0  0  0  0  0  0
    4.9000   -0.9667    0.0000 C   0  0  0  0  0  0  0  0  0  0  0  0
    8.1167    1.4333    0.0000 C   0  0  0  0  0  0  0  0  0  0  0  0
    7.4750    1.9583    0.0000 O   0  0  0  0  0  0  0  0  0  0  0  0
    4.9000   -0.2375    0.0000 C   0  0  0  0  0  0  0  0  0  0  0  0
   -4.6250   -2.3375    0.0000 O   0  0  0  0  0  0  0  0  0  0  0  0
    2.5250   -3.6042    0.0000 O   0  0  0  0  0  0  0  0  0  0  0  0
   -0.4208   -3.6667    0.0000 O   0  0  0  0  0  0  0  0  0  0  0  0
   -3.9458   -3.4875    0.0000 O   0  0  0  0  0  0  0  0  0  0  0  0
    6.1917    0.5833    0.0000 C   0  0  0  0  0  0  0  0  0  0  0  0
    2.7792   -1.1417    0.0000 C   0  0  0  0  0  0  0  0  0  0  0  0
   -0.4583   -1.1292    0.0000 C   0  0  0  0  0  0  0  0  0  0  0  0
   -3.5708   -1.0417    0.0000 C   0  0  0  0  0  0  0  0  0  0  0  0
  2  1  1  0
  3  5  1  0
  4  3  1  0
  5  1  1  0
  6  2  1  0
  7  2  1  0
  6  8  1  0
  9 23  1  0
 10 24  1  0
 11 33  1  1
 12 32  1  1
 13  3  1  0
 14 39  1  1
 15 12  1  0
 16 14  1  0
 17 11  1  0
 18 12  1  0
 19 14  1  0
 20 11  1  0
 21  8  2  0
 22 41  1  6
 23 18  1  0
 24 19  1  0
 25 29  1  0
 26  1  1  0
 27 16  1  0
 28 15  1  0
 29 20  1  0
 30 21  1  0
 31 17  1  0
 10 32  1  6
  9 33  1  6
 34 38  1  0
 35 26  1  0
 36  4  1  0
 37  5  1  0
 38  8  1  0
 44 39  1  1
 40 22  1  0
 41 37  1  0
  1 42  1  1
 43 30  2  0
 44 40  1  0
  2 45  1  1
  7 46  1  1
 47 36  1  0
 25 48  1  6
 24 49  1  6
 23 50  1  6
 29 51  1  6
  4 52  1  1
 27 53  1  1
 28 54  1  1
 31 55  1  1
  6 35  1  1
 13  7  1  0
  4 22  1  0
 44 47  1  0
 34 30  1  0
 27 10  1  0
 28  9  1  0
 25 31  1  0
M  END
>  <ID>  (374) 


>  <MOLENAME>  (374) 
DIGOXIN

>  <therap>  (374) 
cardiac stimulant

>  <ref>  (374) 
J.Chem.Soc.1930: 508; 1954: 2012

>  <cas#>  (374) 
20830-75-5

>  <source>  (374) 
Digitalis lanata or D. orientalis Lam., Scrophulariaceae

>  <status>  (374) 
USP, INN, BAN, JAN

>  <tradename>  (374) 
LANOXIN

>  <SMILES>  (374) 
C[C@H]1O[C@@H](O[C@H]2[C@@H](O)C[C@H](O[C@H]3[C@@H](O)C[C@H](O[C@H]4CC[C@]5(C)C6C[C@@H](O)[C@]7(C)[C@@H](C8=CC(=O)OC8)CC[C@]7(O)C6CC[C@@H]5C4)O[C@@H]3C)O[C@@H]2C)C[C@H](O)[C@@H]1O

>  <standardized_failed>  (374) 
False

$$$$

     RDKit          2D

 48 54  0  0  0  0  0  0  0  0999 V2000
    8.2542   -1.9250    0.0000 C   0  0  0  0  0  0  0  0  0  0  0  0
    8.2542   -2.6750    0.0000 N   0  0  0  0  0  0  0  0  0  0  0  0
    7.5417   -1.7000    0.0000 O   0  0  0  0  0  0  0  0  0  0  0  0
    7.1042   -2.3125    0.0000 C   0  0  0  0  0  0  0  0  0  0  0  0
    7.5417   -2.9042    0.0000 C   0  0  0  0  0  0  0  0  0  0  0  0
    9.5542   -2.6750    0.0000 C   0  0  0  0  0  0  0  0  0  0  0  0
    8.9042   -3.0500    0.0000 C   0  0  0  0  0  0  0  0  0  0  0  0
    9.5542   -1.9250    0.0000 N   0  0  0  0  0  0  0  0  0  0  0  0
    4.0667   -4.0375    0.0000 C   0  0  0  0  0  0  0  0  0  0  0  0
    4.0667   -5.5375    0.0000 C   0  0  0  0  0  0  0  0  0  0  0  0
    8.9042   -1.5500    0.0000 C   0  0  0  0  0  0  0  0  0  0  0  0
    4.7167   -4.4125    0.0000 C   0  0  0  0  0  0  0  0  0  0  0  0
    6.7667   -6.1542    0.0000 S   0  0  0  0  0  0  0  0  0  0  0  0
    3.4167   -4.4125    0.0000 C   0  0  0  0  0  0  0  0  0  0  0  0
    6.3500   -2.0250    0.0000 N   0  0  0  0  0  0  0  0  0  0  0  0
    5.3667   -4.0375    0.0000 N   0  0  0  0  0  0  0  0  0  0  0  0
    4.7167   -2.9042    0.0000 C   0  0  0  0  0  0  0  0  0  0  0  0
    3.4167   -5.1625    0.0000 C   0  0  0  0  0  0  0  0  0  0  0  0
    5.1500   -2.0375    0.0000 C   0  0  0  0  0  0  0  0  0  0  0  0
    4.7167   -5.1625    0.0000 C   0  0  0  0  0  0  0  0  0  0  0  0
    4.0667   -3.2875    0.0000 C   0  0  0  0  0  0  0  0  0  0  0  0
    4.0667   -6.2875    0.0000 C   0  0  0  0  0  0  0  0  0  0  0  0
    2.7667   -6.2917    0.0000 N   0  0  0  0  0  0  0  0  0  0  0  0
    5.3667   -3.2875    0.0000 C   0  0  0  0  0  0  0  0  0  0  0  0
    2.7667   -5.5375    0.0000 C   0  0  0  0  0  0  0  0  0  0  0  0
    9.3875   -3.6292    0.0000 C   0  0  0  0  0  0  0  0  0  0  0  0
   10.2042   -3.0542    0.0000 O   0  0  0  0  0  0  0  0  0  0  0  0
    6.2917   -5.6792    0.0000 O   0  0  0  0  0  0  0  0  0  0  0  0
    7.2375   -5.6792    0.0000 O   0  0  0  0  0  0  0  0  0  0  0  0
    8.0917   -1.2000    0.0000 O   0  0  0  0  0  0  0  0  0  0  0  0
    7.3042   -3.6250    0.0000 O   0  0  0  0  0  0  0  0  0  0  0  0
    4.9417   -1.1875    0.0000 O   0  0  0  0  0  0  0  0  0  0  0  0
    7.3417   -6.4917    0.0000 O   0  0  0  0  0  0  0  0  0  0  0  0
   10.1125   -1.4250    0.0000 C   0  0  0  0  0  0  0  0  0  0  0  0
    6.5292   -3.0292    0.0000 C   0  0  0  0  0  0  0  0  0  0  0  0
    6.1917   -6.4917    0.0000 C   0  0  0  0  0  0  0  0  0  0  0  0
    2.7667   -4.0375    0.0000 C   0  0  0  0  0  0  0  0  0  0  0  0
    6.0167   -4.4125    0.0000 C   0  0  0  0  0  0  0  0  0  0  0  0
    9.1292   -4.3375    0.0000 C   0  0  0  0  0  0  0  0  0  0  0  0
    9.0625   -0.8125    0.0000 C   0  0  0  0  0  0  0  0  0  0  0  0
    9.8042   -0.7375    0.0000 C   0  0  0  0  0  0  0  0  0  0  0  0
    2.1167   -4.4125    0.0000 C   0  0  0  0  0  0  0  0  0  0  0  0
    2.1167   -5.1625    0.0000 C   0  0  0  0  0  0  0  0  0  0  0  0
    8.3875   -4.4667    0.0000 C   0  0  0  0  0  0  0  0  0  0  0  0
    9.6125   -4.9125    0.0000 C   0  0  0  0  0  0  0  0  0  0  0  0
    9.3542   -5.6125    0.0000 C   0  0  0  0  0  0  0  0  0  0  0  0
    8.1292   -5.1750    0.0000 C   0  0  0  0  0  0  0  0  0  0  0  0
    8.6125   -5.7500    0.0000 C   0  0  0  0  0  0  0  0  0  0  0  0
  2  1  1  0
  3  1  1  0
  4  3  1  0
  5  2  1  0
  6  7  1  0
  7  2  1  0
  8 11  1  0
  9 21  1  1
 10 20  1  0
 11  1  1  0
 12 16  1  0
 14  9  1  0
 15  4  1  0
 16 24  1  0
 17 19  1  1
 18 14  2  0
 19 15  1  0
 12 20  1  6
 21 17  1  0
 22 10  2  0
 23 25  1  0
 24 17  1  0
 25 18  1  0
  7 26  1  6
 27  6  2  0
 28 13  2  0
 29 13  2  0
  1 30  1  6
 31  5  2  0
 32 19  2  0
 33 13  1  0
 34  8  1  0
  4 35  1  1
 36 13  1  0
 37 14  1  0
 38 16  1  0
 39 26  1  0
 11 40  1  6
 41 40  1  0
 42 37  2  0
 43 42  1  0
 44 39  2  0
 45 39  1  0
 46 45  2  0
 47 44  1  0
 48 47  2  0
  5  4  1  0
  6  8  1  0
 41 34  1  0
 46 48  1  0
 12  9  1  0
 10 18  1  0
 43 25  2  0
 22 23  1  0
M  END
>  <ID>  (375) 


>  <MOLENAME>  (375) 
DIHYDROERGOTAMINE MESYLATE

>  <therap>  (375) 
vasoconstrictor, antimigraine

>  <ref>  (375) 
Expert Opin. Pharmacother. (2010), 11(18), 3085-3093; Res. Clin. Stud. Headache (1978), 6, 6-12; J. Pharmacol. (1947), 90, 166-73

>  <cas#>  (375) 
6190-39-2

>  <source>  (375) 
semisynthetic

>  <status>  (375) 
USP, INN, BAN, JAN

>  <tradename>  (375) 
MIGRANAL

>  <SMILES>  (375) 
CN1C[C@H](C(=O)N[C@]2(C)O[C@@]3(O)[C@@H]4CCCN4C(=O)[C@H](Cc4ccccc4)N3C2=O)C[C@@H]2c3c4c(c[nH]c4ccc3)C[C@H]21

>  <standardized_failed>  (375) 
False

$$$$

     RDKit          2D

 45 46  0  0  0  0  0  0  0  0999 V2000
    5.9042   -4.9917    0.0000 C   0  0  0  0  0  0  0  0  0  0  0  0
    4.8042   -3.4792    0.0000 C   0  0  0  0  0  0  0  0  0  0  0  0
    4.2167   -2.8917    0.0000 C   0  0  0  0  0  0  0  0  0  0  0  0
    6.1792   -5.7750    0.0000 C   0  0  0  0  0  0  0  0  0  0  0  0
    5.2375   -1.8917    0.0000 C   0  0  0  0  0  0  0  0  0  0  0  0
    5.0917   -5.0167    0.0000 C   0  0  0  0  0  0  0  0  0  0  0  0
    7.1875   -4.3667    0.0000 C   0  0  0  0  0  0  0  0  0  0  0  0
    4.4292   -2.1125    0.0000 C   0  0  0  0  0  0  0  0  0  0  0  0
    7.6417   -3.6875    0.0000 C   0  0  0  0  0  0  0  0  0  0  0  0
    0.9542   -5.1167    0.0000 S   0  0  0  0  0  0  0  0  0  0  0  0
    5.6000   -3.2667    0.0000 C   0  0  0  0  0  0  0  0  0  0  0  0
    5.8167   -2.4750    0.0000 C   0  0  0  0  0  0  0  0  0  0  0  0
    8.4667   -3.7417    0.0000 C   0  0  0  0  0  0  0  0  0  0  0  0
    6.2542   -4.3750    0.0000 O   0  0  0  0  0  0  0  0  0  0  0  0
    4.6625   -4.3042    0.0000 O   0  0  0  0  0  0  0  0  0  0  0  0
    7.5417   -5.1042    0.0000 O   0  0  0  0  0  0  0  0  0  0  0  0
    4.8542   -5.8042    0.0000 O   0  0  0  0  0  0  0  0  0  0  0  0
    8.8292   -4.4792    0.0000 C   0  0  0  0  0  0  0  0  0  0  0  0
    8.3667   -5.1667    0.0000 C   0  0  0  0  0  0  0  0  0  0  0  0
    5.5417   -6.2667    0.0000 C   0  0  0  0  0  0  0  0  0  0  0  0
    3.4167   -3.0875    0.0000 N   0  0  0  0  0  0  0  0  0  0  0  0
    5.4542   -1.0917    0.0000 N   0  0  0  0  0  0  0  0  0  0  0  0
    6.2542   -0.8792    0.0000 C   0  0  0  0  0  0  0  0  0  0  0  0
    2.6042   -2.7375    0.0000 C   0  0  0  0  0  0  0  0  0  0  0  0
    0.9542   -4.2917    0.0000 O   0  0  0  0  0  0  0  0  0  0  0  0
    1.7792   -5.1167    0.0000 O   0  0  0  0  0  0  0  0  0  0  0  0
    6.4667   -0.0917    0.0000 N   0  0  0  0  0  0  0  0  0  0  0  0
    2.6417   -2.0292    0.0000 N   0  0  0  0  0  0  0  0  0  0  0  0
    7.4292   -3.0250    0.0000 N   0  0  0  0  0  0  0  0  0  0  0  0
    6.9750   -5.5292    0.0000 O   0  0  0  0  0  0  0  0  0  0  0  0
    0.1292   -5.1167    0.0000 O   0  0  0  0  0  0  0  0  0  0  0  0
    0.9542   -5.9417    0.0000 O   0  0  0  0  0  0  0  0  0  0  0  0
    3.8417   -1.5417    0.0000 O   0  0  0  0  0  0  0  0  0  0  0  0
    6.3542   -3.4292    0.0000 O   0  0  0  0  0  0  0  0  0  0  0  0
    6.5167   -2.2792    0.0000 O   0  0  0  0  0  0  0  0  0  0  0  0
    8.9375   -3.0542    0.0000 O   0  0  0  0  0  0  0  0  0  0  0  0
    6.8417   -1.4667    0.0000 N   0  0  0  0  0  0  0  0  0  0  0  0
    1.8292   -3.1792    0.0000 N   0  0  0  0  0  0  0  0  0  0  0  0
    6.2917   -6.5917    0.0000 C   0  0  0  0  0  0  0  0  0  0  0  0
    9.6500   -4.5417    0.0000 O   0  0  0  0  0  0  0  0  0  0  0  0
    8.7292   -5.9125    0.0000 C   0  0  0  0  0  0  0  0  0  0  0  0
    7.0542   -6.9042    0.0000 O   0  0  0  0  0  0  0  0  0  0  0  0
    8.2667   -6.5917    0.0000 O   0  0  0  0  0  0  0  0  0  0  0  0
    5.5667   -7.0917    0.0000 C   0  0  0  0  0  0  0  0  0  0  0  0
    8.1292   -2.5292    0.0000 C   0  0  0  0  0  0  0  0  0  0  0  0
  2 15  1  6
  3  2  1  0
  4  1  1  0
  5  8  1  0
  6  1  1  0
  7 14  1  0
  8  3  1  0
  9  7  1  0
 11  2  1  0
 12 11  1  0
 13  9  1  0
 14  1  1  0
  6 15  1  1
 16  7  1  0
 17  6  1  0
 18 19  1  0
 19 16  1  0
 20  4  1  0
  3 21  1  1
  5 22  1  1
 23 22  1  0
 24 21  1  0
 25 10  2  0
 26 10  2  0
 27 23  2  0
 28 24  2  0
  9 29  1  1
  4 30  1  6
 31 10  1  0
 32 10  1  0
  8 33  1  6
 11 34  1  1
 12 35  1  6
 36 13  1  0
 37 23  1  0
 38 24  1  0
  4 39  1  0
 40 18  1  0
 41 19  1  0
 42 39  1  0
 43 41  1  0
 44 20  1  0
 45 29  1  0
 20 17  1  0
 13 18  1  0
  5 12  1  0
M  END
>  <ID>  (376) 


>  <MOLENAME>  (376) 
DIHYDROSTREPTOMYCIN SULFATE

>  <therap>  (376) 
antibacterial, tuberculostatic

>  <ref>  (376) 
Antibiotics (1979), 5(1), 272-303; J. Bacteriol. (1947), 53, 205-11; J. Am. Chem. Soc. (1946), 68, 1390-1

>  <cas#>  (376) 
5490-27-7, 128-46-1 [dihydrostreptomycin]

>  <source>  (376) 
Streptomyces humidus

>  <status>  (376) 
USP, INN, BAN, JAN

>  <tradename>  (376) 
nan

>  <SMILES>  (376) 
CN[C@@H]1C(OC2[C@H](O[C@@H]3[C@@H](NC(=N)N)[C@H](O)[C@@H](NC(=N)N)[C@H](O)[C@H]3O)OC(C)[C@]2(O)CO)OC(CO)C(O)C1O

>  <standardized_failed>  (376) 
False

$$$$

     RDKit          2D

 33 35  0  0  0  0  0  0  0  0999 V2000
    5.2292   -2.9042    0.0000 C   0  0  0  0  0  0  0  0  0  0  0  0
    5.2292   -2.1542    0.0000 C   0  0  0  0  0  0  0  0  0  0  0  0
    4.5750   -3.2792    0.0000 N   0  0  0  0  0  0  0  0  0  0  0  0
    3.9292   -2.1542    0.0000 N   0  0  0  0  0  0  0  0  0  0  0  0
    3.9292   -2.9042    0.0000 C   0  0  0  0  0  0  0  0  0  0  0  0
    4.5750   -1.7750    0.0000 C   0  0  0  0  0  0  0  0  0  0  0  0
    6.5375   -2.9042    0.0000 N   0  0  0  0  0  0  0  0  0  0  0  0
    5.8792   -1.7667    0.0000 N   0  0  0  0  0  0  0  0  0  0  0  0
    6.5375   -2.1542    0.0000 C   0  0  0  0  0  0  0  0  0  0  0  0
    3.2792   -3.2792    0.0000 O   0  0  0  0  0  0  0  0  0  0  0  0
    4.5750   -1.0250    0.0000 O   0  0  0  0  0  0  0  0  0  0  0  0
    1.2375   -2.4042    0.0000 C   0  0  0  0  0  0  0  0  0  0  0  0
    4.5750   -4.0292    0.0000 C   0  0  0  0  0  0  0  0  0  0  0  0
    7.1875   -1.7792    0.0000 Cl  0  0  0  0  0  0  0  0  0  0  0  0
    3.2750   -1.7792    0.0000 C   0  0  0  0  0  0  0  0  0  0  0  0
    0.5875   -2.0292    0.0000 C   0  0  0  0  0  0  0  0  0  0  0  0
    1.2375   -3.1542    0.0000 C   0  0  0  0  0  0  0  0  0  0  0  0
    2.5292   -0.1542    0.0000 N   0  0  0  0  0  0  0  0  0  0  0  0
    1.8792   -2.0292    0.0000 O   0  0  0  0  0  0  0  0  0  0  0  0
    1.8792   -1.2792    0.0000 C   0  0  0  0  0  0  0  0  0  0  0  0
    2.5292   -0.9042    0.0000 C   0  0  0  0  0  0  0  0  0  0  0  0
    0.5875   -1.2792    0.0000 C   0  0  0  0  0  0  0  0  0  0  0  0
    0.5917   -3.5292    0.0000 C   0  0  0  0  0  0  0  0  0  0  0  0
   -0.0583   -2.4042    0.0000 C   0  0  0  0  0  0  0  0  0  0  0  0
    1.8875   -3.5292    0.0000 C   0  0  0  0  0  0  0  0  0  0  0  0
    3.1750    0.2208    0.0000 C   0  0  0  0  0  0  0  0  0  0  0  0
    1.8792    0.2208    0.0000 C   0  0  0  0  0  0  0  0  0  0  0  0
    0.5917   -4.2792    0.0000 C   0  0  0  0  0  0  0  0  0  0  0  0
    1.8875   -4.2792    0.0000 C   0  0  0  0  0  0  0  0  0  0  0  0
   -0.0583   -0.9042    0.0000 C   0  0  0  0  0  0  0  0  0  0  0  0
   -0.7083   -2.0292    0.0000 C   0  0  0  0  0  0  0  0  0  0  0  0
   -0.7083   -1.2792    0.0000 C   0  0  0  0  0  0  0  0  0  0  0  0
    1.2375   -4.6542    0.0000 C   0  0  0  0  0  0  0  0  0  0  0  0
  2  1  2  0
  3  1  1  0
  4  5  1  0
  5  3  1  0
  6  2  1  0
  7  1  1  0
  8  2  1  0
  9  7  2  0
 10  5  2  0
 11  6  2  0
 13  3  1  0
 14  9  1  0
 15  4  1  0
 16 12  1  0
 17 12  1  0
 18 21  1  0
 19 12  1  0
 20 19  1  0
 21 20  1  0
 22 16  2  0
 23 17  2  0
 24 16  1  0
 25 17  1  0
 26 18  1  0
 27 18  1  0
 28 23  1  0
 29 25  2  0
 30 22  1  0
 31 24  2  0
 32 31  1  0
 33 29  1  0
  8  9  1  0
  4  6  1  0
 33 28  2  0
 32 30  2  0
M  END
>  <ID>  (377) 


>  <MOLENAME>  (377) 
DIMENHYDRINATE

>  <therap>  (377) 
antiemetic

>  <ref>  (377) 
Neurosci. Biobehav. Rev. (2002), 26(1), 61-67; Science (1949), 109, 574; Ann. Otol., Rhinol., Laryngol. (1950), 59(3), 622-30

>  <cas#>  (377) 
523-87-5

>  <source>  (377) 
synthetic

>  <status>  (377) 
USP, INN, BAN, JAN

>  <tradename>  (377) 
DRAMAMINE

>  <SMILES>  (377) 
CN(C)CCOC(c1ccccc1)c1ccccc1.Cn1c(=O)c2c(nc(Cl)[nH]2)n(C)c1=O

>  <standardized_failed>  (377) 
False

$$$$

     RDKit          2D

  9  9  0  0  0  0  0  0  0  0999 V2000
    3.6292   -2.6792    0.0000 N   0  0  0  0  0  0  0  0  0  0  0  0
    4.0667   -2.0792    0.0000 C   0  0  0  0  0  0  0  0  0  0  0  0
    2.9167   -2.4500    0.0000 C   0  0  0  0  0  0  0  0  0  0  0  0
    3.6292   -1.4667    0.0000 O   0  0  0  0  0  0  0  0  0  0  0  0
    2.9167   -1.7000    0.0000 C   0  0  0  0  0  0  0  0  0  0  0  0
    4.8167   -2.0917    0.0000 O   0  0  0  0  0  0  0  0  0  0  0  0
    2.3125   -2.9000    0.0000 O   0  0  0  0  0  0  0  0  0  0  0  0
    2.3625   -1.1917    0.0000 C   0  0  0  0  0  0  0  0  0  0  0  0
    2.4125   -2.2542    0.0000 C   0  0  0  0  0  0  0  0  0  0  0  0
  2  1  1  0
  3  1  1  0
  4  2  1  0
  5  3  1  0
  6  2  2  0
  7  3  2  0
  8  5  1  0
  9  5  1  0
  5  4  1  0
M  END
>  <ID>  (378) 


>  <MOLENAME>  (378) 
DIMETHADIONE

>  <therap>  (378) 
anticonvulsant

>  <ref>  (378) 
J. Pharmacol. Exp. Ther. (1968), 161(2), 335-41; Epilepsy Res. (1996), 23(1), 15-36; Neurosci. Lett. (1989), 98(1), 74-8

>  <cas#>  (378) 
695-53-4

>  <source>  (378) 
synthetic; BAX-1400Z, AC-1198, DMO

>  <status>  (378) 
USAN, INN

>  <tradename>  (378) 
nan

>  <SMILES>  (378) 
CC1(C)OC(=O)NC1=O

>  <standardized_failed>  (378) 
False

$$$$

     RDKit          2D

 18 19  0  0  0  0  0  0  0  0999 V2000
    2.6167   -0.0750    0.0000 C   0  0  0  0  0  0  0  0  0  0  0  0
    3.0792   -0.6625    0.0000 C   0  0  0  0  0  0  0  0  0  0  0  0
    1.8667   -0.1875    0.0000 C   0  0  0  0  0  0  0  0  0  0  0  0
    3.8250   -0.5625    0.0000 C   0  0  0  0  0  0  0  0  0  0  0  0
    2.8000   -1.3542    0.0000 C   0  0  0  0  0  0  0  0  0  0  0  0
    4.2792   -1.1500    0.0000 C   0  0  0  0  0  0  0  0  0  0  0  0
    2.8917    0.6250    0.0000 O   0  0  0  0  0  0  0  0  0  0  0  0
    1.4000    0.3958    0.0000 C   0  0  0  0  0  0  0  0  0  0  0  0
    4.0000   -1.8500    0.0000 C   0  0  0  0  0  0  0  0  0  0  0  0
    4.1125    0.1458    0.0000 O   0  0  0  0  0  0  0  0  0  0  0  0
    3.2625   -1.9500    0.0000 C   0  0  0  0  0  0  0  0  0  0  0  0
    1.6750    1.1000    0.0000 O   0  0  0  0  0  0  0  0  0  0  0  0
    1.5917   -0.8875    0.0000 C   0  0  0  0  0  0  0  0  0  0  0  0
    4.4542   -2.4292    0.0000 O   0  0  0  0  0  0  0  0  0  0  0  0
    0.6542    0.2833    0.0000 C   0  0  0  0  0  0  0  0  0  0  0  0
    4.1792   -3.1250    0.0000 C   0  0  0  0  0  0  0  0  0  0  0  0
    0.8500   -1.0000    0.0000 C   0  0  0  0  0  0  0  0  0  0  0  0
    0.3792   -0.4125    0.0000 C   0  0  0  0  0  0  0  0  0  0  0  0
  2  1  1  0
  3  1  1  0
  4  2  2  0
  5  2  1  0
  6  4  1  0
  7  1  2  0
  8  3  2  0
  9 11  1  0
 10  4  1  0
 11  5  2  0
 12  8  1  0
 13  3  1  0
 14  9  1  0
 15  8  1  0
 16 14  1  0
 17 13  2  0
 18 17  1  0
 18 15  2  0
  6  9  2  0
M  END
>  <ID>  (379) 


>  <MOLENAME>  (379) 
DIOXYBENZONE

>  <therap>  (379) 
ultraviolet screen

>  <ref>  (379) 
J. Soc. Cosmet. Chem. (1978), 29(9), 525-36; J. Soc. Cosmet. Chem. (1969), 20(10), 639-51; Br. J. Dermatol. (1969), 81(10), 731-6

>  <cas#>  (379) 
131-53-3

>  <source>  (379) 
synthetic; NSC-56769

>  <status>  (379) 
USP, INN

>  <tradename>  (379) 
nan

>  <SMILES>  (379) 
COc1cc(O)c(C(=O)c2c(O)cccc2)cc1

>  <standardized_failed>  (379) 
False

$$$$

     RDKit          2D

 20 20  0  0  0  0  0  0  0  0999 V2000
    6.3750   -5.0917    0.0000 C   0  0  0  0  0  0  0  0  0  0  0  0
    6.3750   -5.8417    0.0000 C   0  0  0  0  0  0  0  0  0  0  0  0
    5.5375   -5.0667    0.0000 C   0  0  0  0  0  0  0  0  0  0  0  0
    7.6667   -2.8417    0.0000 N   0  0  0  0  0  0  0  0  0  0  0  0
    7.0250   -4.7167    0.0000 O   0  0  0  0  0  0  0  0  0  0  0  0
    9.0417   -3.5917    0.0000 Cl  0  0  0  0  0  0  0  0  0  0  0  0
    7.0250   -3.9667    0.0000 C   0  0  0  0  0  0  0  0  0  0  0  0
    7.6667   -3.5917    0.0000 C   0  0  0  0  0  0  0  0  0  0  0  0
    7.0250   -6.2167    0.0000 C   0  0  0  0  0  0  0  0  0  0  0  0
    5.1625   -5.7167    0.0000 C   0  0  0  0  0  0  0  0  0  0  0  0
    5.7292   -6.2167    0.0000 C   0  0  0  0  0  0  0  0  0  0  0  0
    5.1625   -4.4042    0.0000 C   0  0  0  0  0  0  0  0  0  0  0  0
    8.3125   -2.4667    0.0000 C   0  0  0  0  0  0  0  0  0  0  0  0
    7.0167   -2.4667    0.0000 C   0  0  0  0  0  0  0  0  0  0  0  0
    7.0250   -6.9667    0.0000 C   0  0  0  0  0  0  0  0  0  0  0  0
    5.7292   -6.9667    0.0000 C   0  0  0  0  0  0  0  0  0  0  0  0
    4.4125   -5.7167    0.0000 C   0  0  0  0  0  0  0  0  0  0  0  0
    4.4042   -4.4042    0.0000 C   0  0  0  0  0  0  0  0  0  0  0  0
    4.0292   -5.0667    0.0000 C   0  0  0  0  0  0  0  0  0  0  0  0
    6.3750   -7.3417    0.0000 C   0  0  0  0  0  0  0  0  0  0  0  0
  2  1  1  0
  3  1  1  0
  4  8  1  0
  5  1  1  0
  7  5  1  0
  8  7  1  0
  9  2  2  0
 10  3  2  0
 11  2  1  0
 12  3  1  0
 13  4  1  0
 14  4  1  0
 15  9  1  0
 16 11  2  0
 17 10  1  0
 18 12  2  0
 19 17  2  0
 20 16  1  0
 19 18  1  0
 15 20  2  0
M  END
>  <ID>  (380) 


>  <MOLENAME>  (380) 
DIPHENHYDRAMINE HYDROCHLORIDE

>  <therap>  (380) 
antihistaminic

>  <ref>  (380) 
Allergy Asthma Proc. (2007), 28(4), 418-426; J. Med. Pharm. Chem. (1960), 257-77; J. Pharmacol. Exp. Ther. (1945), 85, 122-8

>  <cas#>  (380) 
147-24-0

>  <source>  (380) 
synthetic

>  <status>  (380) 
USP, INN, BAN, JAN

>  <tradename>  (380) 
BENADRIL

>  <SMILES>  (380) 
CN(C)CCOC(c1ccccc1)c1ccccc1

>  <standardized_failed>  (380) 
False

$$$$

     RDKit          2D

 22 23  0  0  0  0  0  0  0  0999 V2000
    6.8167   -5.2792    0.0000 C   0  0  0  0  0  0  0  0  0  0  0  0
    4.2292   -4.5292    0.0000 N   0  0  0  0  0  0  0  0  0  0  0  0
    6.1667   -5.6542    0.0000 O   0  0  0  0  0  0  0  0  0  0  0  0
    7.4667   -5.6542    0.0000 C   0  0  0  0  0  0  0  0  0  0  0  0
    6.8167   -4.5292    0.0000 C   0  0  0  0  0  0  0  0  0  0  0  0
    5.5167   -5.2792    0.0000 C   0  0  0  0  0  0  0  0  0  0  0  0
    4.8792   -5.6542    0.0000 C   0  0  0  0  0  0  0  0  0  0  0  0
    5.5167   -4.5292    0.0000 C   0  0  0  0  0  0  0  0  0  0  0  0
    4.2292   -5.2792    0.0000 C   0  0  0  0  0  0  0  0  0  0  0  0
    4.8792   -4.1542    0.0000 C   0  0  0  0  0  0  0  0  0  0  0  0
    2.9875   -5.0542    0.0000 Cl  0  0  0  0  0  0  0  0  0  0  0  0
    3.5792   -4.1417    0.0000 C   0  0  0  0  0  0  0  0  0  0  0  0
    7.4667   -6.4042    0.0000 C   0  0  0  0  0  0  0  0  0  0  0  0
    8.1167   -5.2792    0.0000 C   0  0  0  0  0  0  0  0  0  0  0  0
    6.1667   -4.1542    0.0000 C   0  0  0  0  0  0  0  0  0  0  0  0
    7.4667   -4.1542    0.0000 C   0  0  0  0  0  0  0  0  0  0  0  0
    8.7667   -5.6542    0.0000 C   0  0  0  0  0  0  0  0  0  0  0  0
    7.4667   -3.4042    0.0000 C   0  0  0  0  0  0  0  0  0  0  0  0
    6.1667   -3.4042    0.0000 C   0  0  0  0  0  0  0  0  0  0  0  0
    8.1167   -6.7792    0.0000 C   0  0  0  0  0  0  0  0  0  0  0  0
    6.8167   -3.0292    0.0000 C   0  0  0  0  0  0  0  0  0  0  0  0
    8.7667   -6.4042    0.0000 C   0  0  0  0  0  0  0  0  0  0  0  0
  2 10  1  0
  3  1  1  0
  4  1  1  0
  5  1  1  0
  6  3  1  0
  7  6  1  0
  8  6  1  0
  9  7  1  0
 10  8  1  0
 12  2  1  0
 13  4  2  0
 14  4  1  0
 15  5  2  0
 16  5  1  0
 17 14  2  0
 18 16  2  0
 19 15  1  0
 20 13  1  0
 21 19  2  0
 22 17  1  0
 18 21  1  0
 22 20  2  0
  9  2  1  0
M  END
>  <ID>  (381) 


>  <MOLENAME>  (381) 
DIPHENYLPYRALINE HYDROCHLORIDE

>  <therap>  (381) 
antihistaminic

>  <ref>  (381) 
Eur. J. Pharmacol. (2005), 506(3), 237-240; J. Pharmacol. Exp. Ther. (1968), 160(1), 243-8; J. Clin. Pharmacol. J. New Drugs (1968), 8(1), 42-53

>  <cas#>  (381) 
132-18-3 147-20-6 [diphenylpyraline]

>  <source>  (381) 
synthetic

>  <status>  (381) 
USP-XXI, INN, BAN, JAN

>  <tradename>  (381) 
HISPRIL

>  <SMILES>  (381) 
CN1CCC(OC(c2ccccc2)c2ccccc2)CC1

>  <standardized_failed>  (381) 
False

$$$$

     RDKit          2D

 36 39  0  0  0  0  0  0  0  0999 V2000
    2.9667   -2.6917    0.0000 C   0  0  0  0  0  0  0  0  0  0  0  0
    2.9667   -1.9417    0.0000 C   0  0  0  0  0  0  0  0  0  0  0  0
    4.2667   -2.6917    0.0000 N   0  0  0  0  0  0  0  0  0  0  0  0
    1.6750   -1.9417    0.0000 N   0  0  0  0  0  0  0  0  0  0  0  0
    2.3167   -1.5667    0.0000 C   0  0  0  0  0  0  0  0  0  0  0  0
    3.6167   -3.0667    0.0000 C   0  0  0  0  0  0  0  0  0  0  0  0
    4.2667   -1.9417    0.0000 C   0  0  0  0  0  0  0  0  0  0  0  0
    1.6750   -2.6917    0.0000 C   0  0  0  0  0  0  0  0  0  0  0  0
    3.6167   -1.5667    0.0000 N   0  0  0  0  0  0  0  0  0  0  0  0
    2.3167   -3.0667    0.0000 N   0  0  0  0  0  0  0  0  0  0  0  0
    2.3167   -0.8167    0.0000 N   0  0  0  0  0  0  0  0  0  0  0  0
    3.6167   -3.8167    0.0000 N   0  0  0  0  0  0  0  0  0  0  0  0
    4.9167   -1.5667    0.0000 N   0  0  0  0  0  0  0  0  0  0  0  0
    1.0167   -3.0750    0.0000 N   0  0  0  0  0  0  0  0  0  0  0  0
    2.9667   -0.4417    0.0000 C   0  0  0  0  0  0  0  0  0  0  0  0
    1.6750   -0.4417    0.0000 C   0  0  0  0  0  0  0  0  0  0  0  0
    2.9667   -4.1917    0.0000 C   0  0  0  0  0  0  0  0  0  0  0  0
    4.2667   -4.1917    0.0000 C   0  0  0  0  0  0  0  0  0  0  0  0
    4.2750    0.3083    0.0000 O   0  0  0  0  0  0  0  0  0  0  0  0
   -0.2750   -1.5750    0.0000 O   0  0  0  0  0  0  0  0  0  0  0  0
    0.3750   -4.9500    0.0000 O   0  0  0  0  0  0  0  0  0  0  0  0
    6.8667   -1.9417    0.0000 O   0  0  0  0  0  0  0  0  0  0  0  0
    0.3667   -2.7000    0.0000 C   0  0  0  0  0  0  0  0  0  0  0  0
    5.5667   -1.9417    0.0000 C   0  0  0  0  0  0  0  0  0  0  0  0
    1.0167   -3.8250    0.0000 C   0  0  0  0  0  0  0  0  0  0  0  0
    4.9167   -0.8167    0.0000 C   0  0  0  0  0  0  0  0  0  0  0  0
    6.2167   -1.5667    0.0000 C   0  0  0  0  0  0  0  0  0  0  0  0
    0.3667   -1.9500    0.0000 C   0  0  0  0  0  0  0  0  0  0  0  0
    0.3750   -4.1917    0.0000 C   0  0  0  0  0  0  0  0  0  0  0  0
    4.2750   -0.4417    0.0000 C   0  0  0  0  0  0  0  0  0  0  0  0
    2.9667    0.3083    0.0000 C   0  0  0  0  0  0  0  0  0  0  0  0
    2.9667   -4.9417    0.0000 C   0  0  0  0  0  0  0  0  0  0  0  0
    4.2625   -4.9417    0.0000 C   0  0  0  0  0  0  0  0  0  0  0  0
    1.6750    0.3083    0.0000 C   0  0  0  0  0  0  0  0  0  0  0  0
    2.3167    0.6833    0.0000 C   0  0  0  0  0  0  0  0  0  0  0  0
    3.6125   -5.3167    0.0000 C   0  0  0  0  0  0  0  0  0  0  0  0
  2  1  2  0
  3  6  2  0
  4  8  1  0
  5  2  1  0
  6  1  1  0
  7  3  1  0
  8 10  2  0
  9  2  1  0
 10  1  1  0
 11  5  1  0
 12  6  1  0
 13  7  1  0
 14  8  1  0
 15 11  1  0
 16 11  1  0
 17 12  1  0
 18 12  1  0
 19 30  1  0
 20 28  1  0
 21 29  1  0
 22 27  1  0
 23 14  1  0
 24 13  1  0
 25 14  1  0
 26 13  1  0
 27 24  1  0
 28 23  1  0
 29 25  1  0
 30 26  1  0
 31 15  1  0
 32 17  1  0
 33 18  1  0
 34 16  1  0
 35 34  1  0
 36 33  1  0
  9  7  2  0
  4  5  2  0
 36 32  1  0
 35 31  1  0
M  END
>  <ID>  (382) 


>  <MOLENAME>  (382) 
DIPYRIDAMOLE

>  <therap>  (382) 
coronary vasodilator

>  <ref>  (382) 
N. Engl. J. Med. (1987), 316(20), 1247-57; Arzneim. Forsch. (1959), 9, 476-80; Arzneim. Forsch. (1959), 9, 39-45

>  <cas#>  (382) 
58-32-2

>  <source>  (382) 
synthetic; RA-8

>  <status>  (382) 
USP, INN, BAN, JAN

>  <tradename>  (382) 
PERSANTINE

>  <SMILES>  (382) 
OCCN(CCO)c1nc2c(nc(N(CCO)CCO)nc2N2CCCCC2)c(N2CCCCC2)n1

>  <standardized_failed>  (382) 
False

$$$$

     RDKit          2D

 14 14  0  0  0  0  0  0  0  0999 V2000
    5.2875   -2.0167    0.0000 C   0  0  0  0  0  0  0  0  0  0  0  0
    4.5750   -2.4292    0.0000 C   0  0  0  0  0  0  0  0  0  0  0  0
    6.0042   -2.4250    0.0000 N   0  0  0  0  0  0  0  0  0  0  0  0
    5.2792   -1.1917    0.0000 O   0  0  0  0  0  0  0  0  0  0  0  0
    3.8542   -2.0167    0.0000 C   0  0  0  0  0  0  0  0  0  0  0  0
    3.1417   -2.4375    0.0000 C   0  0  0  0  0  0  0  0  0  0  0  0
    4.5750   -3.2625    0.0000 C   0  0  0  0  0  0  0  0  0  0  0  0
    3.8542   -3.6750    0.0000 C   0  0  0  0  0  0  0  0  0  0  0  0
    6.0042   -3.2500    0.0000 C   0  0  0  0  0  0  0  0  0  0  0  0
    6.7167   -2.0125    0.0000 C   0  0  0  0  0  0  0  0  0  0  0  0
    3.1417   -3.2625    0.0000 C   0  0  0  0  0  0  0  0  0  0  0  0
    2.4292   -2.0250    0.0000 C   0  0  0  0  0  0  0  0  0  0  0  0
    5.2917   -3.6667    0.0000 C   0  0  0  0  0  0  0  0  0  0  0  0
    6.7125   -1.1875    0.0000 C   0  0  0  0  0  0  0  0  0  0  0  0
  2  1  1  0
  3  1  1  0
  4  1  2  0
  5  2  2  0
  6  5  1  0
  7  2  1  0
  8  7  2  0
  9  3  1  0
 10  3  1  0
 11  8  1  0
 12  6  1  0
 13  9  1  0
 14 10  1  0
  6 11  2  0
M  END
>  <ID>  (383) 


>  <MOLENAME>  (383) 
DIETHYLTOLUAMIDE

>  <therap>  (383) 
insect repellant

>  <ref>  (383) 
J. Med. Entomol. (1981), 18(5), 357-61; J. Am. Acad. Dermatol. (2008), 58(5), 865-71; J. Med. Entomol. (1978), 14(5), 536-41

>  <cas#>  (383) 
134-62-3

>  <source>  (383) 
synthetic

>  <status>  (383) 
USP, INN, BAN

>  <tradename>  (383) 
DEET

>  <SMILES>  (383) 
CCN(CC)C(=O)c1cc(C)ccc1

>  <standardized_failed>  (383) 
False

$$$$

     RDKit          2D

 30 30  0  0  0  0  0  0  0  0999 V2000
    7.0917   -3.5917    0.0000 C   0  0  0  0  0  0  0  0  0  0  0  0
    3.2917   -4.8042    0.0000 P   0  0  0  0  0  0  0  0  0  0  0  0
    7.8417   -3.5917    0.0000 C   0  0  0  0  0  0  0  0  0  0  0  0
    6.3417   -3.5917    0.0000 C   0  0  0  0  0  0  0  0  0  0  0  0
    5.2167   -2.9417    0.0000 N   0  0  0  0  0  0  0  0  0  0  0  0
    5.9667   -2.9417    0.0000 C   0  0  0  0  0  0  0  0  0  0  0  0
    7.0917   -4.3417    0.0000 C   0  0  0  0  0  0  0  0  0  0  0  0
    2.9292   -4.1875    0.0000 O   0  0  0  0  0  0  0  0  0  0  0  0
    7.0917   -2.8417    0.0000 C   0  0  0  0  0  0  0  0  0  0  0  0
    6.4417   -4.7167    0.0000 N   0  0  0  0  0  0  0  0  0  0  0  0
    8.2167   -2.9417    0.0000 O   0  0  0  0  0  0  0  0  0  0  0  0
    3.9167   -4.4417    0.0000 O   0  0  0  0  0  0  0  0  0  0  0  0
    3.4792   -5.5042    0.0000 O   0  0  0  0  0  0  0  0  0  0  0  0
    2.6750   -5.1667    0.0000 O   0  0  0  0  0  0  0  0  0  0  0  0
    8.2167   -4.2375    0.0000 N   0  0  0  0  0  0  0  0  0  0  0  0
    4.8417   -2.3000    0.0000 C   0  0  0  0  0  0  0  0  0  0  0  0
    4.8417   -3.5917    0.0000 C   0  0  0  0  0  0  0  0  0  0  0  0
    6.4417   -5.4667    0.0000 C   0  0  0  0  0  0  0  0  0  0  0  0
    7.7375   -4.7167    0.0000 C   0  0  0  0  0  0  0  0  0  0  0  0
    7.7417   -2.4667    0.0000 C   0  0  0  0  0  0  0  0  0  0  0  0
    6.4500   -2.4667    0.0000 C   0  0  0  0  0  0  0  0  0  0  0  0
    5.2167   -1.6500    0.0000 C   0  0  0  0  0  0  0  0  0  0  0  0
    4.0917   -2.3000    0.0000 C   0  0  0  0  0  0  0  0  0  0  0  0
    4.0917   -3.5917    0.0000 C   0  0  0  0  0  0  0  0  0  0  0  0
    5.2167   -4.2417    0.0000 C   0  0  0  0  0  0  0  0  0  0  0  0
    7.0917   -5.8417    0.0000 C   0  0  0  0  0  0  0  0  0  0  0  0
    7.7417   -1.7167    0.0000 C   0  0  0  0  0  0  0  0  0  0  0  0
    6.4500   -1.7167    0.0000 C   0  0  0  0  0  0  0  0  0  0  0  0
    7.7375   -5.4667    0.0000 C   0  0  0  0  0  0  0  0  0  0  0  0
    7.0917   -1.3417    0.0000 C   0  0  0  0  0  0  0  0  0  0  0  0
  3  1  1  0
  4  1  1  0
  5  6  1  0
  6  4  1  0
  7  1  1  0
  8  2  2  0
  9  1  1  0
 10  7  2  0
 11  3  2  0
 12  2  1  0
 13  2  1  0
 14  2  1  0
 15  3  1  0
 16  5  1  0
 17  5  1  0
 18 10  1  0
 19  7  1  0
 20  9  2  0
 21  9  1  0
 22 16  1  0
 23 16  1  0
 24 17  1  0
 25 17  1  0
 26 29  1  0
 27 20  1  0
 28 21  2  0
 29 19  2  0
 30 27  2  0
 28 30  1  0
 26 18  2  0
M  END
>  <ID>  (384) 


>  <MOLENAME>  (384) 
DISOPYRAMIDE PHOSPHATE

>  <therap>  (384) 
antiarrhythmic

>  <ref>  (384) 
Angiology (1987), 38(2 Pt 2), 174-83; Ann. Intern. Med. (1982), 96(3), 337-43; J. Pharmacol. Exp. Ther. (1962), 136(1), 114-24

>  <cas#>  (384) 
3737-09-5

>  <source>  (384) 
synthetic; SC-13957

>  <status>  (384) 
USP, INN, BAN, JAN

>  <tradename>  (384) 
NORPACE

>  <SMILES>  (384) 
CC(C)N(CCC(C(N)=O)(c1ccccc1)c1ncccc1)C(C)C

>  <standardized_failed>  (384) 
False

$$$$

     RDKit          2D

 32 36  0  0  0  0  0  0  0  0999 V2000
    7.7083   -5.8833    0.0000 C   0  0  0  0  0  0  0  0  0  0  0  0
    6.9250   -6.1292    0.0000 C   0  0  0  0  0  0  0  0  0  0  0  0
    6.9167   -6.9542    0.0000 C   0  0  0  0  0  0  0  0  0  0  0  0
    4.7750   -7.3500    0.0000 C   0  0  0  0  0  0  0  0  0  0  0  0
    8.1958   -5.2250    0.0000 N   0  0  0  0  0  0  0  0  0  0  0  0
    6.1958   -7.3583    0.0000 C   0  0  0  0  0  0  0  0  0  0  0  0
    8.1833   -6.5500    0.0000 C   0  0  0  0  0  0  0  0  0  0  0  0
    5.4875   -6.9375    0.0000 C   0  0  0  0  0  0  0  0  0  0  0  0
    4.7708   -8.1750    0.0000 C   0  0  0  0  0  0  0  0  0  0  0  0
    6.2167   -5.7083    0.0000 C   0  0  0  0  0  0  0  0  0  0  0  0
    5.4917   -6.1125    0.0000 C   0  0  0  0  0  0  0  0  0  0  0  0
    4.0625   -6.9292    0.0000 C   0  0  0  0  0  0  0  0  0  0  0  0
    8.9667   -6.3042    0.0000 O   0  0  0  0  0  0  0  0  0  0  0  0
    7.6958   -7.2125    0.0000 C   0  0  0  0  0  0  0  0  0  0  0  0
    8.9708   -5.4833    0.0000 C   0  0  0  0  0  0  0  0  0  0  0  0
    7.4917   -5.0792    0.0000 C   0  0  0  0  0  0  0  0  0  0  0  0
    4.0625   -8.5792    0.0000 C   0  0  0  0  0  0  0  0  0  0  0  0
    6.2000   -8.1792    0.0000 C   0  0  0  0  0  0  0  0  0  0  0  0
    3.3542   -7.3500    0.0000 C   0  0  0  0  0  0  0  0  0  0  0  0
    3.3542   -8.1750    0.0000 C   0  0  0  0  0  0  0  0  0  0  0  0
    5.4833   -8.5875    0.0000 C   0  0  0  0  0  0  0  0  0  0  0  0
    6.6875   -3.4417    0.0000 C   0  0  0  0  0  0  0  0  0  0  0  0
    6.6917   -4.8708    0.0000 C   0  0  0  0  0  0  0  0  0  0  0  0
    8.0708   -4.4958    0.0000 O   0  0  0  0  0  0  0  0  0  0  0  0
    6.2792   -4.1542    0.0000 O   0  0  0  0  0  0  0  0  0  0  0  0
    7.5125   -3.4417    0.0000 O   0  0  0  0  0  0  0  0  0  0  0  0
    2.6375   -8.5875    0.0000 O   0  0  0  0  0  0  0  0  0  0  0  0
    6.9167   -5.3042    0.0000 C   0  0  0  0  0  0  0  0  0  0  0  0
    4.7833   -5.6958    0.0000 O   0  0  0  0  0  0  0  0  0  0  0  0
    4.7667   -6.5250    0.0000 C   0  0  0  0  0  0  0  0  0  0  0  0
    9.6417   -5.0042    0.0000 C   0  0  0  0  0  0  0  0  0  0  0  0
    6.2750   -2.7292    0.0000 C   0  0  0  0  0  0  0  0  0  0  0  0
  2  1  1  0
  3  2  1  0
  4  8  1  0
  5  1  1  0
  6  3  1  0
  7  1  1  0
  8  6  1  0
  9  4  1  0
 10  2  1  0
 11 10  1  0
 12  4  1  0
  7 13  1  0
  7 14  1  6
 15  5  2  0
  1 16  1  1
 17  9  2  0
 18  6  1  0
 19 12  2  0
 20 17  1  0
 21 18  1  0
 22 25  1  0
 23 16  1  0
 24 16  2  0
 25 23  1  0
 26 22  2  0
 27 20  2  0
  2 28  1  1
 11 29  1  1
  4 30  1  1
 31 15  1  0
 32 22  1  0
 15 13  1  0
 14  3  1  0
 11  8  1  0
 21  9  1  0
 20 19  1  0
M  END
>  <ID>  (385) 


>  <MOLENAME>  (385) 
DEFLAZACORT

>  <therap>  (385) 
antiinflammatory

>  <ref>  (385) 
Drug Ther. Bull. (1999), 37(8), 57-8; Drugs (1995), 50(2), 317-33; J. Med. Chem. (1967), 10(5), 799-802

>  <cas#>  (385) 
14484-47-0

>  <source>  (385) 
synthetic; DL-458-IT, MDL-458

>  <status>  (385) 
USAN, INN, BAN

>  <tradename>  (385) 
CALCORT

>  <SMILES>  (385) 
CC(=O)OCC(=O)[C@@]12N=C(C)O[C@@H]1CC1C3CCC4=CC(=O)C=C[C@]4(C)C3[C@@H](O)C[C@@]12C

>  <standardized_failed>  (385) 
False

$$$$

     RDKit          2D

 12 11  0  0  0  0  0  0  0  0999 V2000
    5.2292   -4.5250    0.0000 C   0  0  0  0  0  0  0  0  0  0  0  0
    4.8625   -5.1792    0.0000 C   0  0  0  0  0  0  0  0  0  0  0  0
    5.9792   -4.5042    0.0000 C   0  0  0  0  0  0  0  0  0  0  0  0
    5.2417   -5.8250    0.0000 C   0  0  0  0  0  0  0  0  0  0  0  0
    6.3667   -5.1542    0.0000 C   0  0  0  0  0  0  0  0  0  0  0  0
    4.8417   -3.8792    0.0000 O   0  0  0  0  0  0  0  0  0  0  0  0
    6.0000   -5.8125    0.0000 C   0  0  0  0  0  0  0  0  0  0  0  0
    4.1125   -5.1917    0.0000 O   0  0  0  0  0  0  0  0  0  0  0  0
    8.6667   -4.7417    0.0000 Cl  0  0  0  0  0  0  0  0  0  0  0  0
    8.2500   -5.7792    0.0000 N   0  0  0  0  0  0  0  0  0  0  0  0
    7.5000   -5.7875    0.0000 C   0  0  0  0  0  0  0  0  0  0  0  0
    7.1167   -5.1500    0.0000 C   0  0  0  0  0  0  0  0  0  0  0  0
  2  1  2  0
  3  1  1  0
  4  2  1  0
  5  3  2  0
  6  1  1  0
  7  5  1  0
  8  2  1  0
 10 11  1  0
 11 12  1  0
 12  5  1  0
  7  4  2  0
M  END
>  <ID>  (386) 


>  <MOLENAME>  (386) 
DOPAMINE HYDROCHLORIDE

>  <therap>  (386) 
cardiotonic, antihypotensive

>  <ref>  (386) 
Am. J. Psychiatry (1970), 127(2), 199-207; Pharm. J. (1969), 203(5530), 503-6; Prog. Brain Res. (2000), 126, 433-453

>  <cas#>  (386) 
62-31-7, 51-61-6 [dopamine]

>  <source>  (386) 
synthetic; ASL-279

>  <status>  (386) 
USP, INN, BAN, JAN

>  <tradename>  (386) 
INTROPIN

>  <SMILES>  (386) 
NCCc1cc(O)c(O)cc1

>  <standardized_failed>  (386) 
False

$$$$

     RDKit          2D

 22 23  0  0  0  0  0  0  0  0999 V2000
    5.9167   -5.6917    0.0000 C   0  0  0  0  0  0  0  0  0  0  0  0
    6.6417   -5.8292    0.0000 C   0  0  0  0  0  0  0  0  0  0  0  0
    5.4500   -6.1417    0.0000 C   0  0  0  0  0  0  0  0  0  0  0  0
    6.6250   -7.2125    0.0000 O   0  0  0  0  0  0  0  0  0  0  0  0
    6.9750   -6.5292    0.0000 C   0  0  0  0  0  0  0  0  0  0  0  0
    5.7042   -4.9667    0.0000 C   0  0  0  0  0  0  0  0  0  0  0  0
    5.4500   -6.8917    0.0000 C   0  0  0  0  0  0  0  0  0  0  0  0
    5.9000   -7.3292    0.0000 C   0  0  0  0  0  0  0  0  0  0  0  0
    6.5250   -3.1625    0.0000 N   0  0  0  0  0  0  0  0  0  0  0  0
    6.2250   -4.4292    0.0000 C   0  0  0  0  0  0  0  0  0  0  0  0
    7.7625   -3.9667    0.0000 Cl  0  0  0  0  0  0  0  0  0  0  0  0
    4.8000   -5.7625    0.0000 C   0  0  0  0  0  0  0  0  0  0  0  0
    7.0875   -5.1917    0.0000 C   0  0  0  0  0  0  0  0  0  0  0  0
    6.0042   -3.7042    0.0000 C   0  0  0  0  0  0  0  0  0  0  0  0
    7.7500   -6.5917    0.0000 C   0  0  0  0  0  0  0  0  0  0  0  0
    4.8000   -7.2667    0.0000 C   0  0  0  0  0  0  0  0  0  0  0  0
    6.3125   -2.4417    0.0000 C   0  0  0  0  0  0  0  0  0  0  0  0
    7.2500   -3.3375    0.0000 C   0  0  0  0  0  0  0  0  0  0  0  0
    4.1500   -6.1417    0.0000 C   0  0  0  0  0  0  0  0  0  0  0  0
    7.8625   -5.2542    0.0000 C   0  0  0  0  0  0  0  0  0  0  0  0
    8.1917   -5.9542    0.0000 C   0  0  0  0  0  0  0  0  0  0  0  0
    4.1500   -6.8917    0.0000 C   0  0  0  0  0  0  0  0  0  0  0  0
  2  1  1  0
  3  1  1  0
  4  5  1  0
  5  2  2  0
  6  1  2  0
  7  3  2  0
  8  7  1  0
  9 14  1  0
 10  6  1  0
 12  3  1  0
 13  2  1  0
 14 10  1  0
 15  5  1  0
 16  7  1  0
 17  9  1  0
 18  9  1  0
 19 12  2  0
 20 13  2  0
 21 20  1  0
 22 19  1  0
  4  8  1  0
 22 16  2  0
 21 15  2  0
M  END
>  <ID>  (387) 


>  <MOLENAME>  (387) 
DOXEPIN HYDROCHLORIDE

>  <therap>  (387) 
antidepressant

>  <ref>  (387) 
Drugs 13:161 (1977); Clin Ther 7:181 (1985)

>  <cas#>  (387) 
1229-29-4, 1668-19-5 [doxepin], 4698-39-9 [(//E//)-isomer], 25127-31-5 [(//Z//)-isomer]

>  <source>  (387) 
synthetic; P-3693A

>  <status>  (387) 
USP, INN, BAN

>  <tradename>  (387) 
SINEQUAN

>  <SMILES>  (387) 
CN(C)CC/C=C1/c2c(cccc2)COc2c1cccc2

>  <standardized_failed>  (387) 
False

$$$$

     RDKit          2D

 33 35  0  0  0  0  0  0  0  0999 V2000
    6.8167   -4.1667    0.0000 C   0  0  0  0  0  0  0  0  0  0  0  0
    5.3917   -4.1667    0.0000 C   0  0  0  0  0  0  0  0  0  0  0  0
    6.8167   -4.9917    0.0000 C   0  0  0  0  0  0  0  0  0  0  0  0
    8.2500   -4.1667    0.0000 C   0  0  0  0  0  0  0  0  0  0  0  0
    6.1042   -3.7542    0.0000 C   0  0  0  0  0  0  0  0  0  0  0  0
    7.5292   -3.7542    0.0000 C   0  0  0  0  0  0  0  0  0  0  0  0
    8.2500   -4.9917    0.0000 C   0  0  0  0  0  0  0  0  0  0  0  0
    4.6792   -3.7542    0.0000 C   0  0  0  0  0  0  0  0  0  0  0  0
    5.3917   -4.9917    0.0000 C   0  0  0  0  0  0  0  0  0  0  0  0
    7.5292   -5.4042    0.0000 C   0  0  0  0  0  0  0  0  0  0  0  0
    3.9625   -4.1667    0.0000 C   0  0  0  0  0  0  0  0  0  0  0  0
    6.1042   -5.4042    0.0000 C   0  0  0  0  0  0  0  0  0  0  0  0
    3.9625   -4.9917    0.0000 C   0  0  0  0  0  0  0  0  0  0  0  0
    4.6792   -5.4042    0.0000 C   0  0  0  0  0  0  0  0  0  0  0  0
    8.9667   -3.7542    0.0000 C   0  0  0  0  0  0  0  0  0  0  0  0
    7.5292   -6.2292    0.0000 N   0  0  0  0  0  0  0  0  0  0  0  0
    7.5292   -2.9292    0.0000 O   0  0  0  0  0  0  0  0  0  0  0  0
    4.6792   -2.9292    0.0000 O   0  0  0  0  0  0  0  0  0  0  0  0
    3.2500   -3.7542    0.0000 C   0  0  0  0  0  0  0  0  0  0  0  0
    6.8167   -3.3375    0.0000 O   0  0  0  0  0  0  0  0  0  0  0  0
    8.9750   -2.9292    0.0000 O   0  0  0  0  0  0  0  0  0  0  0  0
    6.1042   -2.9292    0.0000 O   0  0  0  0  0  0  0  0  0  0  0  0
    8.9667   -5.4125    0.0000 O   0  0  0  0  0  0  0  0  0  0  0  0
    6.1042   -6.2292    0.0000 O   0  0  0  0  0  0  0  0  0  0  0  0
    9.6792   -4.1667    0.0000 N   0  0  0  0  0  0  0  0  0  0  0  0
    3.2500   -5.4042    0.0000 C   0  0  0  0  0  0  0  0  0  0  0  0
    4.6792   -6.2292    0.0000 C   0  0  0  0  0  0  0  0  0  0  0  0
    3.2500   -2.9292    0.0000 O   0  0  0  0  0  0  0  0  0  0  0  0
    9.6375   -6.7417    0.0000 Cl  0  0  0  0  0  0  0  0  0  0  0  0
    2.5292   -4.9917    0.0000 C   0  0  0  0  0  0  0  0  0  0  0  0
    2.5292   -4.1667    0.0000 C   0  0  0  0  0  0  0  0  0  0  0  0
    6.8167   -6.6417    0.0000 C   0  0  0  0  0  0  0  0  0  0  0  0
    8.2500   -6.6417    0.0000 C   0  0  0  0  0  0  0  0  0  0  0  0
  2  5  2  0
  3  1  1  0
  4  6  1  0
  5  1  1  0
  6  1  1  0
  7  4  2  0
  8  2  1  0
  9  2  1  6
  3 10  1  6
 11  8  1  0
  3 12  1  0
 13 14  1  0
 14  9  1  0
 15  4  1  0
 10 16  1  1
 17  6  2  0
 18  8  2  0
 19 11  2  0
  1 20  1  1
 21 15  2  0
 22  5  1  0
 23  7  1  0
 12 24  1  1
 25 15  1  0
 26 13  2  0
 14 27  1  1
 28 19  1  0
 30 26  1  0
 31 19  1  0
 32 16  1  0
 33 16  1  0
  9 12  1  0
  7 10  1  0
 11 13  1  0
 30 31  2  0
M  END
>  <ID>  (388) 


>  <MOLENAME>  (388) 
DOXYCYCLINE HYDROCHLORIDE

>  <therap>  (388) 
antibacterial

>  <ref>  (388) 
Chemotherapy (1968), 13, 1-20; Proc. Soc. Exp. Biol. Med. (1966), 122(4), 1107-12; J. Am. Chem. Soc. (1960), 82, 3381-8

>  <cas#>  (388) 
17086-28-1, 564-25-0 [anhydrous]

>  <source>  (388) 
semisynthetic; GS-3065

>  <status>  (388) 
USP, INN, BAN

>  <tradename>  (388) 
PERIOSTAT

>  <SMILES>  (388) 
C[C@H]1c2cccc(O)c2C(=O)C2=C(O)[C@]3(O)C(=O)C(C(N)=O)=C(O)[C@@H](N(C)C)[C@@H]3[C@@H](O)[C@@H]21

>  <standardized_failed>  (388) 
False

$$$$

     RDKit          2D

 28 28  0  0  0  0  0  0  0  0999 V2000
    5.5250   -2.9417    0.0000 C   0  0  0  0  0  0  0  0  0  0  0  0
    8.3917   -4.9792    0.0000 C   0  0  0  0  0  0  0  0  0  0  0  0
    9.5417   -5.6417    0.0000 C   0  0  0  0  0  0  0  0  0  0  0  0
    4.8750   -3.3167    0.0000 C   0  0  0  0  0  0  0  0  0  0  0  0
    4.2250   -2.9417    0.0000 N   0  0  0  0  0  0  0  0  0  0  0  0
    5.9042   -3.5917    0.0000 C   0  0  0  0  0  0  0  0  0  0  0  0
    8.9625   -5.9750    0.0000 O   0  0  0  0  0  0  0  0  0  0  0  0
    7.8125   -4.6417    0.0000 O   0  0  0  0  0  0  0  0  0  0  0  0
    6.1792   -2.5625    0.0000 O   0  0  0  0  0  0  0  0  0  0  0  0
    9.5417   -4.9750    0.0000 C   0  0  0  0  0  0  0  0  0  0  0  0
    8.9667   -4.6417    0.0000 C   0  0  0  0  0  0  0  0  0  0  0  0
    8.1292   -2.9375    0.0000 N   0  0  0  0  0  0  0  0  0  0  0  0
   10.1167   -5.9750    0.0000 O   0  0  0  0  0  0  0  0  0  0  0  0
    8.3917   -5.6417    0.0000 O   0  0  0  0  0  0  0  0  0  0  0  0
    6.8292   -2.9375    0.0000 C   0  0  0  0  0  0  0  0  0  0  0  0
    5.1500   -2.2875    0.0000 C   0  0  0  0  0  0  0  0  0  0  0  0
    3.5750   -3.3167    0.0000 C   0  0  0  0  0  0  0  0  0  0  0  0
    7.4792   -2.5625    0.0000 C   0  0  0  0  0  0  0  0  0  0  0  0
    4.8750   -4.0667    0.0000 C   0  0  0  0  0  0  0  0  0  0  0  0
    5.5250   -4.2417    0.0000 C   0  0  0  0  0  0  0  0  0  0  0  0
    6.6542   -3.5917    0.0000 C   0  0  0  0  0  0  0  0  0  0  0  0
    8.7750   -2.5625    0.0000 C   0  0  0  0  0  0  0  0  0  0  0  0
    8.1292   -3.6875    0.0000 C   0  0  0  0  0  0  0  0  0  0  0  0
    3.5750   -4.0667    0.0000 C   0  0  0  0  0  0  0  0  0  0  0  0
    4.2250   -4.4417    0.0000 C   0  0  0  0  0  0  0  0  0  0  0  0
    5.9042   -4.8917    0.0000 C   0  0  0  0  0  0  0  0  0  0  0  0
    7.0292   -4.2417    0.0000 C   0  0  0  0  0  0  0  0  0  0  0  0
    6.6542   -4.8917    0.0000 C   0  0  0  0  0  0  0  0  0  0  0  0
  3 10  1  0
  4  1  1  0
  5  4  2  0
  6  1  1  0
  7  3  2  0
  8  2  2  0
  9  1  1  0
 10 11  1  0
 11  2  1  0
 12 18  1  0
 13  3  1  0
 14  2  1  0
 15  9  1  0
 16  1  1  0
 17  5  1  0
 18 15  1  0
 19  4  1  0
 20  6  2  0
 21  6  1  0
 22 12  1  0
 23 12  1  0
 24 17  2  0
 25 19  2  0
 26 20  1  0
 27 21  2  0
 28 27  1  0
 25 24  1  0
 28 26  2  0
M  END
>  <ID>  (389) 


>  <MOLENAME>  (389) 
DOXYLAMINE SUCCINATE

>  <therap>  (389) 
antihistaminic, hypnotic

>  <ref>  (389) 
J. Am. Chem. Soc. (1948), 70, 4001-9; Ann. Allergy (1948), 6, 122-30; J. Lab. Clin. Med. (1948), 33, 319-24

>  <cas#>  (389) 
562-10-7, 469-21-6 [doxylamine]

>  <source>  (389) 
synthetic

>  <status>  (389) 
USP, INN, BAN

>  <tradename>  (389) 
DECAPRYN

>  <SMILES>  (389) 
CN(C)CCOC(C)(c1ccccc1)c1ncccc1

>  <standardized_failed>  (389) 
False

$$$$

     RDKit          2D

 18 19  0  0  0  0  0  0  0  0999 V2000
    6.2417  -12.3250    0.0000 C   0  0  0  0  0  0  0  0  0  0  0  0
    6.2417  -11.5667    0.0000 C   0  0  0  0  0  0  0  0  0  0  0  0
    5.5875  -12.7000    0.0000 N   0  0  0  0  0  0  0  0  0  0  0  0
    4.9417  -11.5667    0.0000 N   0  0  0  0  0  0  0  0  0  0  0  0
    4.9417  -12.3250    0.0000 C   0  0  0  0  0  0  0  0  0  0  0  0
    5.5875  -11.1917    0.0000 C   0  0  0  0  0  0  0  0  0  0  0  0
    7.5500  -12.3250    0.0000 N   0  0  0  0  0  0  0  0  0  0  0  0
    6.8917  -11.1875    0.0000 N   0  0  0  0  0  0  0  0  0  0  0  0
    7.5500  -11.5667    0.0000 C   0  0  0  0  0  0  0  0  0  0  0  0
    6.8917  -10.4375    0.0000 C   0  0  0  0  0  0  0  0  0  0  0  0
    4.2917  -12.7000    0.0000 O   0  0  0  0  0  0  0  0  0  0  0  0
    5.5875  -10.4417    0.0000 O   0  0  0  0  0  0  0  0  0  0  0  0
    5.5875  -13.4500    0.0000 C   0  0  0  0  0  0  0  0  0  0  0  0
    4.2875  -11.1917    0.0000 C   0  0  0  0  0  0  0  0  0  0  0  0
    7.5417  -10.0625    0.0000 C   0  0  0  0  0  0  0  0  0  0  0  0
    7.5417   -9.3125    0.0000 O   0  0  0  0  0  0  0  0  0  0  0  0
    8.1917  -11.1875    0.0000 O   0  0  0  0  0  0  0  0  0  0  0  0
    8.1917  -10.4375    0.0000 C   0  0  0  0  0  0  0  0  0  0  0  0
  2  1  2  0
  3  1  1  0
  4  5  1  0
  5  3  1  0
  6  2  1  0
  7  1  1  0
  8  2  1  0
  9  7  2  0
 10  8  1  0
 11  5  2  0
 12  6  2  0
 13  3  1  0
 14  4  1  0
 15 10  1  0
 16 15  1  0
 17 18  1  0
 18 15  1  0
  8  9  1  0
  4  6  1  0
M  END
>  <ID>  (390) 


>  <MOLENAME>  (390) 
DYPHYLLINE

>  <therap>  (390) 
PDE inhibitor, bronchodilator, vasodilator

>  <ref>  (390) 
J. Bone Miner. Res. (2007), 22(10), 1640-1648; Therapie (1971), 26(5), 911-17; Mol. Pharmacol. (1970), 6(6), 597-603

>  <cas#>  (390) 
479-18-5

>  <source>  (390) 
synthetic

>  <status>  (390) 
USP, INN, BAN, JAN

>  <tradename>  (390) 
LUFYLLIN

>  <SMILES>  (390) 
Cn1c(=O)c2c(ncn2CC(O)CO)n(C)c1=O

>  <standardized_failed>  (390) 
False

$$$$

     RDKit          2D

 23 19  0  0  0  0  0  0  0  0999 V2000
    4.1542   -3.6250    0.0000 C   0  0  0  0  0  0  0  0  0  0  0  0
    4.3917   -5.8667    0.0000 C   0  0  0  0  0  0  0  0  0  0  0  0
    8.1792   -4.7292    0.0000 C   0  0  0  0  0  0  0  0  0  0  0  0
    6.3542   -6.0500    0.0000 C   0  0  0  0  0  0  0  0  0  0  0  0
    4.9167   -4.6792    0.0000 N   0  0  0  0  0  0  0  0  0  0  0  0
    6.8917   -4.8625    0.0000 N   0  0  0  0  0  0  0  0  0  0  0  0
    3.7792   -6.3042    0.0000 O   0  0  0  0  0  0  0  0  0  0  0  0
    3.5542   -4.0625    0.0000 O   0  0  0  0  0  0  0  0  0  0  0  0
    5.6792   -5.7375    0.0000 O   0  0  0  0  0  0  0  0  0  0  0  0
    8.7917   -4.2917    0.0000 O   0  0  0  0  0  0  0  0  0  0  0  0
    4.3167   -5.1167    0.0000 C   0  0  0  0  0  0  0  0  0  0  0  0
    4.8417   -3.9375    0.0000 C   0  0  0  0  0  0  0  0  0  0  0  0
    6.9667   -5.6042    0.0000 C   0  0  0  0  0  0  0  0  0  0  0  0
    7.5042   -4.4250    0.0000 C   0  0  0  0  0  0  0  0  0  0  0  0
    6.2042   -4.5500    0.0000 C   0  0  0  0  0  0  0  0  0  0  0  0
    5.6042   -4.9875    0.0000 C   0  0  0  0  0  0  0  0  0  0  0  0
    8.2542   -5.4750    0.0000 O   0  0  0  0  0  0  0  0  0  0  0  0
    6.4292   -6.7875    0.0000 O   0  0  0  0  0  0  0  0  0  0  0  0
    4.0792   -2.8750    0.0000 O   0  0  0  0  0  0  0  0  0  0  0  0
    5.0667   -6.1750    0.0000 O   0  0  0  0  0  0  0  0  0  0  0  0
    2.7042   -5.3667    0.0000 Na  0  0  0  0  0 15  0  0  0  0  0  0
    8.2000   -6.7792    0.0000 Na  0  0  0  0  0 15  0  0  0  0  0  0
    5.4542   -3.1167    0.0000 Na  0  0  0  0  0 15  0  0  0  0  0  0
  2 11  1  0
  3 14  1  0
  4 13  1  0
  5 12  1  0
  6 15  1  0
  7  2  2  0
  8  1  2  0
  9  4  2  0
 10  3  2  0
 11  5  1  0
 12  1  1  0
 13  6  1  0
 14  6  1  0
 15 16  1  0
 16  5  1  0
 17  3  1  0
 18  4  1  0
 19  1  1  0
 20  2  1  0
M  CHG  3  21   1  22   1  23   1
M  END
>  <ID>  (391) 


>  <MOLENAME>  (391) 
TRISODIUM ETHYLENEDIAMINE TETRACETATE

>  <therap>  (391) 
chelating agent, antioxidant

>  <ref>  (391) 
Int J Toxicol 21 Suppl 2:95 (2002)

>  <cas#>  (391) 
150-38-9

>  <source>  (391) 
synthetic

>  <status>  (391) 
USAN

>  <tradename>  (391) 
LIMCLAIR

>  <SMILES>  (391) 
O=C(O)CN(CCN(CC(=O)O)CC(=O)O)CC(=O)O.[Na+].[Na+].[Na+]

>  <standardized_failed>  (391) 
False

$$$$

     RDKit          2D

 37 39  0  0  0  0  0  0  0  0999 V2000
    6.9000   -2.6375    0.0000 N   0  0  0  0  0  0  0  0  0  0  0  0
    6.1875   -3.0500    0.0000 C   0  0  0  0  0  0  0  0  0  0  0  0
    5.4667   -2.6375    0.0000 C   0  0  0  0  0  0  0  0  0  0  0  0
    6.1875   -6.3542    0.0000 C   0  0  0  0  0  0  0  0  0  0  0  0
    5.4667   -1.8042    0.0000 C   0  0  0  0  0  0  0  0  0  0  0  0
    6.1875   -3.8792    0.0000 C   0  0  0  0  0  0  0  0  0  0  0  0
    4.7542   -3.0500    0.0000 C   0  0  0  0  0  0  0  0  0  0  0  0
    6.1875   -5.5292    0.0000 C   0  0  0  0  0  0  0  0  0  0  0  0
    6.9042   -6.7667    0.0000 C   0  0  0  0  0  0  0  0  0  0  0  0
    6.9000   -4.2917    0.0000 C   0  0  0  0  0  0  0  0  0  0  0  0
    5.4750   -6.7667    0.0000 C   0  0  0  0  0  0  0  0  0  0  0  0
    7.6167   -3.0500    0.0000 C   0  0  0  0  0  0  0  0  0  0  0  0
    4.0417   -2.6375    0.0000 C   0  0  0  0  0  0  0  0  0  0  0  0
    6.9042   -7.6000    0.0000 C   0  0  0  0  0  0  0  0  0  0  0  0
    6.9000   -5.1167    0.0000 C   0  0  0  0  0  0  0  0  0  0  0  0
    4.7542   -1.3917    0.0000 C   0  0  0  0  0  0  0  0  0  0  0  0
    5.4750   -7.6000    0.0000 C   0  0  0  0  0  0  0  0  0  0  0  0
    6.1875   -8.0125    0.0000 C   0  0  0  0  0  0  0  0  0  0  0  0
    4.0417   -1.8042    0.0000 C   0  0  0  0  0  0  0  0  0  0  0  0
    5.4750   -5.1167    0.0000 N   0  0  0  0  0  0  0  0  0  0  0  0
    7.6167   -3.8792    0.0000 C   0  0  0  0  0  0  0  0  0  0  0  0
    6.9000   -1.8042    0.0000 C   0  0  0  0  0  0  0  0  0  0  0  0
    6.1875   -1.3917    0.0000 C   0  0  0  0  0  0  0  0  0  0  0  0
    4.7542   -5.5292    0.0000 C   0  0  0  0  0  0  0  0  0  0  0  0
    3.3167   -3.0542    0.0000 O   0  0  0  0  0  0  0  0  0  0  0  0
    7.6250   -8.0167    0.0000 O   0  0  0  0  0  0  0  0  0  0  0  0
    3.3167   -1.3875    0.0000 O   0  0  0  0  0  0  0  0  0  0  0  0
    6.1792   -8.8375    0.0000 O   0  0  0  0  0  0  0  0  0  0  0  0
    8.7042   -1.9625    0.0000 Cl  0  0  0  0  0  0  0  0  0  0  0  0
    3.1750   -5.1792    0.0000 Cl  0  0  0  0  0  0  0  0  0  0  0  0
    4.7542   -6.3542    0.0000 C   0  0  0  0  0  0  0  0  0  0  0  0
    8.3375   -4.3000    0.0000 C   0  0  0  0  0  0  0  0  0  0  0  0
    3.3250   -3.8875    0.0000 C   0  0  0  0  0  0  0  0  0  0  0  0
    5.4625   -9.2417    0.0000 C   0  0  0  0  0  0  0  0  0  0  0  0
    3.3250   -0.5542    0.0000 C   0  0  0  0  0  0  0  0  0  0  0  0
    8.3417   -7.6042    0.0000 C   0  0  0  0  0  0  0  0  0  0  0  0
    9.0542   -3.8875    0.0000 C   0  0  0  0  0  0  0  0  0  0  0  0
  2  1  1  0
  3  2  1  0
  4  8  1  0
  5 23  1  0
  6  2  1  0
  7  3  2  0
  8 15  1  0
  9  4  2  0
 10 21  1  0
 11  4  1  0
 12  1  1  0
 13  7  1  0
 14  9  1  0
 10 15  1  1
 16  5  2  0
 17 11  2  0
 18 17  1  0
 19 16  1  0
 20  8  1  0
 21 12  1  0
 22  1  1  0
 23 22  1  0
 24 20  1  0
 25 13  1  0
 26 14  1  0
 27 19  1  0
 28 18  1  0
 31 24  1  0
 21 32  1  6
 33 25  1  0
 34 28  1  0
 35 27  1  0
 36 26  1  0
 37 32  1  0
  5  3  1  0
 10  6  1  0
 13 19  2  0
 31 11  1  0
 18 14  2  0
M  END
>  <ID>  (392) 


>  <MOLENAME>  (392) 
EMETINE DIHYDROCHLORIDE

>  <therap>  (392) 
inhibits RNA, DNA and protein synthesis

>  <ref>  (392) 
Nature 162: 524 (1948)

>  <cas#>  (392) 
316-42-7, 483-18-1 [emetine]

>  <source>  (392) 
Uragoga ipecacuanha

>  <status>  (392) 
USP, BAN

>  <tradename>  (392) 
nan

>  <SMILES>  (392) 
CC[C@H]1CN2CCc3cc(OC)c(OC)cc3C2C[C@@H]1CC1NCCc2cc(OC)c(OC)cc21

>  <standardized_failed>  (392) 
False

$$$$

     RDKit          2D

 23 22  0  0  0  0  0  0  0  0999 V2000
    5.7625   -0.1042    0.0000 C   0  0  0  0  0  0  0  0  0  0  0  0
    5.4750   -0.6167    0.0000 C   0  0  0  0  0  0  0  0  0  0  0  0
    5.4625    0.3958    0.0000 C   0  0  0  0  0  0  0  0  0  0  0  0
    5.7625   -1.1167    0.0000 C   0  0  0  0  0  0  0  0  0  0  0  0
    1.2750   -0.7667    0.0000 C   0  0  0  0  0  0  0  0  0  0  0  0
    0.5250   -0.7667    0.0000 C   0  0  0  0  0  0  0  0  0  0  0  0
    1.6500   -0.1167    0.0000 C   0  0  0  0  0  0  0  0  0  0  0  0
    0.1500   -0.1167    0.0000 C   0  0  0  0  0  0  0  0  0  0  0  0
    4.8875    0.3958    0.0000 O   0  0  0  0  0  0  0  0  0  0  0  0
    6.3500   -1.1167    0.0000 O   0  0  0  0  0  0  0  0  0  0  0  0
    1.2750    0.5333    0.0000 C   0  0  0  0  0  0  0  0  0  0  0  0
    0.5250    0.5333    0.0000 C   0  0  0  0  0  0  0  0  0  0  0  0
    6.0500   -0.6167    0.0000 O   0  0  0  0  0  0  0  0  0  0  0  0
    5.1750   -0.1042    0.0000 O   0  0  0  0  0  0  0  0  0  0  0  0
    2.4000   -0.1167    0.0000 C   0  0  0  0  0  0  0  0  0  0  0  0
    5.7500    0.8958    0.0000 O   0  0  0  0  0  0  0  0  0  0  0  0
    5.4750   -1.6167    0.0000 O   0  0  0  0  0  0  0  0  0  0  0  0
    0.1375   -1.4167    0.0000 O   0  0  0  0  0  0  0  0  0  0  0  0
    3.5250   -0.7667    0.0000 N   0  0  0  0  0  0  0  0  0  0  0  0
   -0.6000   -0.1167    0.0000 O   0  0  0  0  0  0  0  0  0  0  0  0
    2.7750    0.5333    0.0000 O   0  0  0  0  0  0  0  0  0  0  0  0
    2.7750   -0.7667    0.0000 C   0  0  0  0  0  0  0  0  0  0  0  0
    3.9000   -1.4167    0.0000 C   0  0  0  0  0  0  0  0  0  0  0  0
  2  1  1  0
  3  1  1  0
  4  2  1  0
  6  5  2  0
  7  5  1  0
  8  6  1  0
  9  3  2  0
 10  4  2  0
 11  7  2  0
 12 11  1  0
 13  2  1  0
 14  1  1  0
 15  7  1  0
 16  3  1  0
 17  4  1  0
 18  6  1  0
 19 22  1  0
 20  8  1  0
 15 21  1  6
 22 15  1  0
 23 19  1  0
 12  8  2  0
M  END
>  <ID>  (393) 


>  <MOLENAME>  (393) 
EPINEPHRINE BITARTRATE

>  <therap>  (393) 
adrenergic agonist, bronchodilator, antiglaucoma agent

>  <ref>  (393) 
Pharmacol Rev 23:1 (1971); Br Med J 327:1332 (2003)

>  <cas#>  (393) 
51-42-3

>  <source>  (393) 
Portulaca grandiflora

>  <status>  (393) 
USP, JAN

>  <tradename>  (393) 
BRONITIN

>  <SMILES>  (393) 
CNC[C@@H](O)c1ccc(O)c(O)c1

>  <standardized_failed>  (393) 
False

$$$$

     RDKit          2D

 12 11  0  0  0  0  0  0  0  0999 V2000
    3.7417   -1.5542    0.0000 N   0  0  0  0  0  0  0  0  0  0  0  0
    3.0292   -1.1417    0.0000 C   0  0  0  0  0  0  0  0  0  0  0  0
    4.4542   -1.1417    0.0000 C   0  0  0  0  0  0  0  0  0  0  0  0
    1.6042   -1.1417    0.0000 C   0  0  0  0  0  0  0  0  0  0  0  0
    2.3167   -1.5542    0.0000 C   0  0  0  0  0  0  0  0  0  0  0  0
    0.8917   -1.5542    0.0000 C   0  0  0  0  0  0  0  0  0  0  0  0
    0.1792   -1.1417    0.0000 C   0  0  0  0  0  0  0  0  0  0  0  0
    5.1667   -1.5542    0.0000 C   0  0  0  0  0  0  0  0  0  0  0  0
    4.4542   -0.3167    0.0000 C   0  0  0  0  0  0  0  0  0  0  0  0
    3.0292   -0.3167    0.0000 C   0  0  0  0  0  0  0  0  0  0  0  0
   -0.5333   -1.5542    0.0000 C   0  0  0  0  0  0  0  0  0  0  0  0
    0.1792   -0.3167    0.0000 C   0  0  0  0  0  0  0  0  0  0  0  0
  2  1  1  0
  3  1  1  0
  4  5  1  0
  5  2  1  0
  6  4  1  0
  7  6  1  0
  8  3  1  0
  9  3  1  0
 10  2  1  0
 11  7  1  0
 12  7  1  0
M  END
>  <ID>  (394) 


>  <MOLENAME>  (394) 
IPROHEPTINE

>  <therap>  (394) 
vasoconstrictor, antihistamine, nasal decongestant

>  <ref>  (394) 
Arzneim Forsch 17:25 (1967)

>  <cas#>  (394) 
13946-02-6

>  <source>  (394) 
synthetic

>  <status>  (394) 
INN, JAN

>  <tradename>  (394) 
METRON

>  <SMILES>  (394) 
CC(C)CCCC(C)NC(C)C

>  <standardized_failed>  (394) 
False

$$$$

     RDKit          2D

 29 31  0  0  0  0  0  0  0  0999 V2000
    5.6792   -4.1500    0.0000 C   0  0  0  0  0  0  0  0  0  0  0  0
    5.6792   -4.9750    0.0000 C   0  0  0  0  0  0  0  0  0  0  0  0
    3.7000   -6.7667    0.0000 C   0  0  0  0  0  0  0  0  0  0  0  0
    6.4667   -3.8917    0.0000 C   0  0  0  0  0  0  0  0  0  0  0  0
    4.5500   -6.7667    0.0000 C   0  0  0  0  0  0  0  0  0  0  0  0
    3.0542   -6.2542    0.0000 C   0  0  0  0  0  0  0  0  0  0  0  0
    4.9667   -5.3875    0.0000 C   0  0  0  0  0  0  0  0  0  0  0  0
    5.1542   -6.2125    0.0000 C   0  0  0  0  0  0  0  0  0  0  0  0
    7.5250   -2.9292    0.0000 C   0  0  0  0  0  0  0  0  0  0  0  0
    7.7792   -2.1417    0.0000 C   0  0  0  0  0  0  0  0  0  0  0  0
    6.4667   -5.2292    0.0000 C   0  0  0  0  0  0  0  0  0  0  0  0
    6.9500   -4.5667    0.0000 C   0  0  0  0  0  0  0  0  0  0  0  0
    3.5792   -7.5792    0.0000 C   0  0  0  0  0  0  0  0  0  0  0  0
    6.7167   -3.1042    0.0000 C   0  0  0  0  0  0  0  0  0  0  0  0
    2.2792   -6.5625    0.0000 C   0  0  0  0  0  0  0  0  0  0  0  0
    3.1792   -5.4292    0.0000 C   0  0  0  0  0  0  0  0  0  0  0  0
    8.5792   -1.9667    0.0000 C   0  0  0  0  0  0  0  0  0  0  0  0
    4.9667   -3.7375    0.0000 C   0  0  0  0  0  0  0  0  0  0  0  0
    5.6792   -3.3167    0.0000 C   0  0  0  0  0  0  0  0  0  0  0  0
    2.8042   -7.8917    0.0000 C   0  0  0  0  0  0  0  0  0  0  0  0
    2.1542   -7.3750    0.0000 C   0  0  0  0  0  0  0  0  0  0  0  0
    9.1375   -2.5792    0.0000 C   0  0  0  0  0  0  0  0  0  0  0  0
    4.2542   -4.9750    0.0000 C   0  0  0  0  0  0  0  0  0  0  0  0
    2.6792   -8.7167    0.0000 O   0  0  0  0  0  0  0  0  0  0  0  0
    4.2542   -4.1500    0.0000 C   0  0  0  0  0  0  0  0  0  0  0  0
    6.1667   -2.4917    0.0000 C   0  0  0  0  0  0  0  0  0  0  0  0
    8.8375   -1.1875    0.0000 C   0  0  0  0  0  0  0  0  0  0  0  0
    9.9417   -2.4042    0.0000 C   0  0  0  0  0  0  0  0  0  0  0  0
    8.8792   -3.3667    0.0000 C   0  0  0  0  0  0  0  0  0  0  0  0
  2  1  1  0
  3  5  2  0
  4  1  1  0
  5  8  1  0
  6  3  1  0
  7  2  1  0
  8  7  2  0
  9 14  1  0
 10  9  2  0
  2 11  1  1
 12  4  1  0
 13  3  1  0
 14  4  1  0
 15  6  1  0
 16  6  2  0
 17 10  1  0
 18  1  1  0
  1 19  1  1
 20 13  1  0
 21 20  1  0
 22 17  1  0
 23 25  1  0
 20 24  1  1
 25 18  1  0
 14 26  1  6
 17 27  1  6
 28 22  1  0
 29 22  1  0
 12 11  1  0
 23  7  1  0
 21 15  1  0
M  END
>  <ID>  (395) 


>  <MOLENAME>  (395) 
ERGOCALCIFEROL

>  <therap>  (395) 
antirachitic vitamin; LD50 (rat) 56 mg/kg po 

>  <ref>  (395) 
Steroids 1959:90; Prog Chem Org Nat Prod 27:131 (1969)

>  <cas#>  (395) 
50-14-6

>  <source>  (395) 
irradiation of ergosterol

>  <status>  (395) 
USP, INN, BAN, JAN

>  <tradename>  (395) 
DRISDOL

>  <SMILES>  (395) 
C=C1CC[C@H](O)C/C1=C/C=C1\CCC[C@]2(C)C([C@H](C)/C=C/[C@H](C)C(C)C)CC[C@@H]12

>  <standardized_failed>  (395) 
False

$$$$

     RDKit          2D

 24 26  0  0  0  0  0  0  0  0999 V2000
    3.9875   -0.1542    0.0000 N   0  0  0  0  0  0  0  0  0  0  0  0
    3.2667   -0.5750    0.0000 C   0  0  0  0  0  0  0  0  0  0  0  0
    2.5542   -0.1542    0.0000 C   0  0  0  0  0  0  0  0  0  0  0  0
    0.4042   -0.5750    0.0000 S   0  0  0  0  0  0  0  0  0  0  0  0
    1.1292   -0.1542    0.0000 C   0  0  0  0  0  0  0  0  0  0  0  0
    3.9875    0.6625    0.0000 C   0  0  0  0  0  0  0  0  0  0  0  0
    2.5542    0.6625    0.0000 C   0  0  0  0  0  0  0  0  0  0  0  0
    3.2667    1.0750    0.0000 N   0  0  0  0  0  0  0  0  0  0  0  0
    1.8417   -0.5750    0.0000 C   0  0  0  0  0  0  0  0  0  0  0  0
    4.7000   -0.5750    0.0000 C   0  0  0  0  0  0  0  0  0  0  0  0
    1.1292    0.6625    0.0000 C   0  0  0  0  0  0  0  0  0  0  0  0
    1.8417    1.0750    0.0000 C   0  0  0  0  0  0  0  0  0  0  0  0
    3.2667   -1.4000    0.0000 O   0  0  0  0  0  0  0  0  0  0  0  0
   -0.0708    0.1583    0.0000 O   0  0  0  0  0  0  0  0  0  0  0  0
    0.9292   -1.2167    0.0000 O   0  0  0  0  0  0  0  0  0  0  0  0
   -0.2583   -1.0292    0.0000 N   0  0  0  0  0  0  0  0  0  0  0  0
    4.7000   -1.4042    0.0000 C   0  0  0  0  0  0  0  0  0  0  0  0
    0.4042    1.0833    0.0000 Cl  0  0  0  0  0  0  0  0  0  0  0  0
    4.7042    1.0833    0.0000 C   0  0  0  0  0  0  0  0  0  0  0  0
    5.4125   -0.1542    0.0000 C   0  0  0  0  0  0  0  0  0  0  0  0
    3.9792   -1.8292    0.0000 C   0  0  0  0  0  0  0  0  0  0  0  0
    5.4125   -1.8167    0.0000 C   0  0  0  0  0  0  0  0  0  0  0  0
    6.1292   -0.5750    0.0000 C   0  0  0  0  0  0  0  0  0  0  0  0
    6.1292   -1.4042    0.0000 C   0  0  0  0  0  0  0  0  0  0  0  0
  2  1  1  0
  3  2  1  0
  4  5  1  0
  5  9  1  0
  6  1  1  0
  7  8  1  0
  8  6  1  0
  9  3  2  0
 10  1  1  0
 11 12  1  0
 12  7  2  0
 13  2  2  0
 14  4  2  0
 15  4  2  0
 16  4  1  0
 17 10  2  0
 18 11  1  0
 19  6  1  0
 20 10  1  0
 21 17  1  0
 22 17  1  0
 23 20  2  0
 24 23  1  0
  7  3  1  0
 24 22  2  0
  5 11  2  0
M  END
>  <ID>  (396) 


>  <MOLENAME>  (396) 
METOLAZONE

>  <therap>  (396) 
diuretic, antihypertensive

>  <ref>  (396) 
J. Med. Chem. (1970), 13(5), 886-95; Arch. Int. Pharmacodyn. Ther. (1969), 177(1), 71-87; Curr. Ther. Res. (1976), 20(6), 737-44

>  <cas#>  (396) 
17560-51-9

>  <source>  (396) 
synthetic; SR-720-22

>  <status>  (396) 
USP, INN, BAN, JAN

>  <tradename>  (396) 
ZAROXOLYN

>  <SMILES>  (396) 
Cc1c(N2C(=O)c3cc(S(N)(=O)=O)c(Cl)cc3NC2C)cccc1

>  <standardized_failed>  (396) 
False

$$$$

     RDKit          2D

 60 62  0  0  0  0  0  0  0  0999 V2000
    5.1125   -4.7792    0.0000 C   0  0  0  0  0  0  0  0  0  0  0  0
    4.3917   -5.1875    0.0000 C   0  0  0  0  0  0  0  0  0  0  0  0
    1.5667   -5.0542    0.0000 C   0  0  0  0  0  0  0  0  0  0  0  0
    0.0750   -4.3792    0.0000 C   0  0  0  0  0  0  0  0  0  0  0  0
   -0.9625   -2.4042    0.0000 C   0  0  0  0  0  0  0  0  0  0  0  0
    0.8625   -4.6167    0.0000 C   0  0  0  0  0  0  0  0  0  0  0  0
    2.9042   -4.4167    0.0000 C   0  0  0  0  0  0  0  0  0  0  0  0
    2.3917   -5.0542    0.0000 C   0  0  0  0  0  0  0  0  0  0  0  0
    0.3667   -1.8750    0.0000 C   0  0  0  0  0  0  0  0  0  0  0  0
   -0.4250   -3.7292    0.0000 O   0  0  0  0  0  0  0  0  0  0  0  0
   -0.4583   -1.7542    0.0000 C   0  0  0  0  0  0  0  0  0  0  0  0
    5.8167   -5.1917    0.0000 C   0  0  0  0  0  0  0  0  0  0  0  0
    0.6667   -2.6375    0.0000 C   0  0  0  0  0  0  0  0  0  0  0  0
    3.6667   -4.7917    0.0000 O   0  0  0  0  0  0  0  0  0  0  0  0
    0.7667   -7.8625    0.0000 C   0  0  0  0  0  0  0  0  0  0  0  0
    2.6042   -3.6500    0.0000 C   0  0  0  0  0  0  0  0  0  0  0  0
    0.7667   -6.4292    0.0000 C   0  0  0  0  0  0  0  0  0  0  0  0
    1.1792   -7.1417    0.0000 C   0  0  0  0  0  0  0  0  0  0  0  0
    4.3917   -6.0000    0.0000 O   0  0  0  0  0  0  0  0  0  0  0  0
   -0.0583   -6.4292    0.0000 O   0  0  0  0  0  0  0  0  0  0  0  0
   -1.0750   -3.2250    0.0000 C   0  0  0  0  0  0  0  0  0  0  0  0
   -0.0500   -7.8667    0.0000 C   0  0  0  0  0  0  0  0  0  0  0  0
    1.1792   -5.7167    0.0000 O   0  0  0  0  0  0  0  0  0  0  0  0
   -0.4708   -7.1542    0.0000 C   0  0  0  0  0  0  0  0  0  0  0  0
    1.4875   -2.7542    0.0000 C   0  0  0  0  0  0  0  0  0  0  0  0
    5.1250   -3.9417    0.0000 O   0  0  0  0  0  0  0  0  0  0  0  0
    1.7917   -3.5250    0.0000 C   0  0  0  0  0  0  0  0  0  0  0  0
    5.8167   -6.0167    0.0000 C   0  0  0  0  0  0  0  0  0  0  0  0
    5.6917   -3.2917    0.0000 C   0  0  0  0  0  0  0  0  0  0  0  0
    6.5292   -4.7917    0.0000 N   0  0  0  0  0  0  0  0  0  0  0  0
   -0.4000   -5.0792    0.0000 O   0  0  0  0  0  0  0  0  0  0  0  0
    5.2750   -1.1542    0.0000 C   0  0  0  0  0  0  0  0  0  0  0  0
    5.1042   -6.4292    0.0000 C   0  0  0  0  0  0  0  0  0  0  0  0
    0.1542   -3.2917    0.0000 O   0  0  0  0  0  0  0  0  0  0  0  0
    6.5167   -3.2917    0.0000 O   0  0  0  0  0  0  0  0  0  0  0  0
    4.4500   -1.1542    0.0000 O   0  0  0  0  0  0  0  0  0  0  0  0
   -1.6125   -1.9042    0.0000 O   0  0  0  0  0  0  0  0  0  0  0  0
    3.4125   -3.4792    0.0000 O   0  0  0  0  0  0  0  0  0  0  0  0
   -0.7625   -0.9875    0.0000 O   0  0  0  0  0  0  0  0  0  0  0  0
    0.3542   -8.6167    0.0000 O   0  0  0  0  0  0  0  0  0  0  0  0
   -0.4625   -8.5792    0.0000 O   0  0  0  0  0  0  0  0  0  0  0  0
    5.2792   -2.5792    0.0000 C   0  0  0  0  0  0  0  0  0  0  0  0
    5.6875   -1.8625    0.0000 C   0  0  0  0  0  0  0  0  0  0  0  0
   -1.7208   -2.7167    0.0000 C   0  0  0  0  0  0  0  0  0  0  0  0
    1.1792   -3.8250    0.0000 C   0  0  0  0  0  0  0  0  0  0  0  0
    2.7625   -5.8042    0.0000 C   0  0  0  0  0  0  0  0  0  0  0  0
    0.8792   -1.2250    0.0000 C   0  0  0  0  0  0  0  0  0  0  0  0
    5.6792   -0.4417    0.0000 O   0  0  0  0  0  0  0  0  0  0  0  0
    1.3792   -8.3917    0.0000 C   0  0  0  0  0  0  0  0  0  0  0  0
    2.8667   -2.8667    0.0000 C   0  0  0  0  0  0  0  0  0  0  0  0
   -1.8458   -3.5375    0.0000 C   0  0  0  0  0  0  0  0  0  0  0  0
   -1.3083   -7.1625    0.0000 C   0  0  0  0  0  0  0  0  0  0  0  0
    2.0042   -2.1042    0.0000 C   0  0  0  0  0  0  0  0  0  0  0  0
    6.5292   -3.9667    0.0000 C   0  0  0  0  0  0  0  0  0  0  0  0
    7.2292   -5.2000    0.0000 C   0  0  0  0  0  0  0  0  0  0  0  0
    5.1000   -7.2542    0.0000 C   0  0  0  0  0  0  0  0  0  0  0  0
    5.2667    0.2708    0.0000 C   0  0  0  0  0  0  0  0  0  0  0  0
    0.7667   -9.3375    0.0000 C   0  0  0  0  0  0  0  0  0  0  0  0
   -1.9708   -4.3542    0.0000 C   0  0  0  0  0  0  0  0  0  0  0  0
    5.6792    0.9833    0.0000 C   0  0  0  0  0  0  0  0  0  0  0  0
  2  1  1  0
  3  8  1  0
  4  6  1  0
  5 11  1  0
  6  3  1  0
  7 14  1  6
  8  7  1  0
  9 13  1  0
 10  4  1  0
 11  9  1  0
 12  1  1  0
 13 25  1  0
  2 14  1  1
 15 18  1  0
 16  7  1  0
 17 23  1  1
 18 17  1  0
 19  2  1  0
 20 17  1  0
 21 10  1  0
 22 24  1  0
  3 23  1  6
 24 20  1  0
 25 27  1  0
  1 26  1  6
 27 16  1  0
 28 12  1  0
 29 26  1  0
 12 30  1  1
 31  4  2  0
 32 43  1  0
 33 28  1  0
 34 13  2  0
 35 29  2  0
 36 32  2  0
  5 37  1  0
 16 38  1  0
 11 39  1  6
 15 40  1  0
 22 41  1  1
 42 29  1  0
 43 42  1  0
  5 44  1  6
  6 45  1  6
  8 46  1  1
  9 47  1  1
 48 32  1  0
 15 49  1  6
 16 50  1  6
 21 51  1  6
 24 52  1  6
 25 53  1  6
 54 30  1  0
 55 30  1  0
 33 56  1  1
 57 48  1  0
 58 40  1  0
 59 51  1  0
 60 57  1  0
 33 19  1  0
 21  5  1  0
 15 22  1  0
M  END
>  <ID>  (397) 


>  <MOLENAME>  (397) 
ERYTHROMYCIN ETHYLSUCCINATE

>  <therap>  (397) 
antibacterial

>  <ref>  (397) 
Clin. Ther. (1989), 11(6), 812-9; Pediatr. Infect. Dis. (1982), 1(6), 384-7; Antibiot. Chemother. (1957), 7, 487-9

>  <cas#>  (397) 
1264-62-6, 114-07-8 [erythromycin]

>  <source>  (397) 
semisynthetic

>  <status>  (397) 
USP, JAN

>  <tradename>  (397) 
ERYPED

>  <SMILES>  (397) 
CCOC(=O)CCC(=O)O[C@H]1[C@H](O[C@@H]2[C@@H](C)[C@H](O[C@H]3C[C@@](C)(OC)[C@@H](O)[C@H](C)O3)[C@@H](C)C(=O)O[C@H](CC)[C@@](C)(O)[C@H](O)[C@@H](C)C(=O)[C@H](C)C[C@@]2(C)O)O[C@H](C)C[C@@H]1N(C)C

>  <standardized_failed>  (397) 
False

$$$$

     RDKit          2D

 20 23  0  0  0  0  0  0  0  0999 V2000
    7.4042   -2.8667    0.0000 C   0  0  0  0  0  0  0  0  0  0  0  0
    7.4042   -3.6167    0.0000 C   0  0  0  0  0  0  0  0  0  0  0  0
    6.7542   -3.9917    0.0000 C   0  0  0  0  0  0  0  0  0  0  0  0
    6.1042   -3.6167    0.0000 C   0  0  0  0  0  0  0  0  0  0  0  0
    5.4625   -3.9917    0.0000 C   0  0  0  0  0  0  0  0  0  0  0  0
    5.4625   -4.7417    0.0000 C   0  0  0  0  0  0  0  0  0  0  0  0
    6.7500   -2.5000    0.0000 C   0  0  0  0  0  0  0  0  0  0  0  0
    6.1042   -2.8667    0.0000 C   0  0  0  0  0  0  0  0  0  0  0  0
    6.7542   -4.7417    0.0000 C   0  0  0  0  0  0  0  0  0  0  0  0
    8.1167   -3.8500    0.0000 C   0  0  0  0  0  0  0  0  0  0  0  0
    4.8125   -3.6167    0.0000 C   0  0  0  0  0  0  0  0  0  0  0  0
    8.1167   -2.6375    0.0000 C   0  0  0  0  0  0  0  0  0  0  0  0
    6.1042   -5.1167    0.0000 C   0  0  0  0  0  0  0  0  0  0  0  0
    4.8125   -5.1167    0.0000 C   0  0  0  0  0  0  0  0  0  0  0  0
    8.5542   -3.2375    0.0000 C   0  0  0  0  0  0  0  0  0  0  0  0
    4.1625   -4.7417    0.0000 C   0  0  0  0  0  0  0  0  0  0  0  0
    4.1625   -3.9917    0.0000 C   0  0  0  0  0  0  0  0  0  0  0  0
    7.4167   -1.9917    0.0000 C   0  0  0  0  0  0  0  0  0  0  0  0
    8.2792   -1.9125    0.0000 O   0  0  0  0  0  0  0  0  0  0  0  0
    3.5125   -5.1250    0.0000 O   0  0  0  0  0  0  0  0  0  0  0  0
  2  1  1  0
  3  2  1  0
  4  8  1  0
  5  4  1  0
  6  5  2  0
  7  1  1  0
  8  7  1  0
  9  3  1  0
 10  2  1  0
 11  5  1  0
 12  1  1  0
 13  9  1  0
 14  6  1  0
 15 12  1  0
 16 17  1  0
 17 11  2  0
  1 18  1  1
 12 19  1  1
 20 16  1  0
 15 10  1  0
  4  3  1  0
 13  6  1  0
 16 14  2  0
M  END
>  <ID>  (398) 


>  <MOLENAME>  (398) 
ESTRADIOL

>  <therap>  (398) 
estrogen

>  <ref>  (398) 
Experientia (1990), 46(1), 13-25; J. Steroid Biochem. (1989), 34(1-6), 285-7; Ann. N. Y. Acad. Sci. (1986), 464, 152-67

>  <cas#>  (398) 
50-28-2

>  <source>  (398) 
pregnancy urine

>  <status>  (398) 
USP, INN, BAN

>  <tradename>  (398) 
VIVELLE

>  <SMILES>  (398) 
C[C@]12CCC3c4c(cc(O)cc4)CCC3C1CC[C@@H]2O

>  <standardized_failed>  (398) 
False

$$$$

     RDKit          2D

 29 33  0  0  0  0  0  0  0  0999 V2000
    7.0167   -4.3000    0.0000 C   0  0  0  0  0  0  0  0  0  0  0  0
    7.0167   -5.1292    0.0000 C   0  0  0  0  0  0  0  0  0  0  0  0
    6.3000   -5.5417    0.0000 C   0  0  0  0  0  0  0  0  0  0  0  0
    5.5875   -5.1292    0.0000 C   0  0  0  0  0  0  0  0  0  0  0  0
    4.8667   -5.5417    0.0000 C   0  0  0  0  0  0  0  0  0  0  0  0
    7.8000   -4.0417    0.0000 C   0  0  0  0  0  0  0  0  0  0  0  0
    4.8667   -6.3667    0.0000 C   0  0  0  0  0  0  0  0  0  0  0  0
    6.3000   -3.8875    0.0000 C   0  0  0  0  0  0  0  0  0  0  0  0
    5.5875   -4.3000    0.0000 C   0  0  0  0  0  0  0  0  0  0  0  0
    7.8000   -5.3792    0.0000 C   0  0  0  0  0  0  0  0  0  0  0  0
    6.3000   -6.3667    0.0000 C   0  0  0  0  0  0  0  0  0  0  0  0
    8.0542   -3.2542    0.0000 O   0  0  0  0  0  0  0  0  0  0  0  0
    8.8542   -3.0792    0.0000 C   0  0  0  0  0  0  0  0  0  0  0  0
    4.1542   -5.1292    0.0000 C   0  0  0  0  0  0  0  0  0  0  0  0
    5.5875   -6.7792    0.0000 C   0  0  0  0  0  0  0  0  0  0  0  0
    8.2792   -4.7125    0.0000 C   0  0  0  0  0  0  0  0  0  0  0  0
    4.1542   -6.7792    0.0000 C   0  0  0  0  0  0  0  0  0  0  0  0
    9.4125   -3.6917    0.0000 O   0  0  0  0  0  0  0  0  0  0  0  0
    3.4417   -6.3667    0.0000 C   0  0  0  0  0  0  0  0  0  0  0  0
    3.4417   -5.5417    0.0000 C   0  0  0  0  0  0  0  0  0  0  0  0
    9.1125   -2.3000    0.0000 C   0  0  0  0  0  0  0  0  0  0  0  0
    7.0167   -3.4667    0.0000 C   0  0  0  0  0  0  0  0  0  0  0  0
    9.9167   -2.1250    0.0000 C   0  0  0  0  0  0  0  0  0  0  0  0
    2.7167   -6.7917    0.0000 O   0  0  0  0  0  0  0  0  0  0  0  0
   10.1667   -1.3375    0.0000 C   0  0  0  0  0  0  0  0  0  0  0  0
   10.9167   -1.0000    0.0000 C   0  0  0  0  0  0  0  0  0  0  0  0
    9.6167   -0.7292    0.0000 C   0  0  0  0  0  0  0  0  0  0  0  0
   10.0167   -0.0167    0.0000 C   0  0  0  0  0  0  0  0  0  0  0  0
   10.8292   -0.1750    0.0000 C   0  0  0  0  0  0  0  0  0  0  0  0
  2  1  1  0
  3  2  1  0
  4  9  1  0
  5  4  1  0
  6  1  1  0
  7  5  2  0
  8  1  1  0
  9  8  1  0
 10  2  1  0
 11  3  1  0
  6 12  1  1
 13 12  1  0
 14  5  1  0
 15 11  1  0
 16  6  1  0
 17  7  1  0
 18 13  2  0
 19 20  1  0
 20 14  2  0
 21 13  1  0
  1 22  1  1
 23 21  1  0
 24 19  1  0
 25 23  1  0
 26 25  1  0
 27 25  1  0
 28 27  1  0
 29 26  1  0
 16 10  1  0
  4  3  1  0
 15  7  1  0
 19 17  2  0
 28 29  1  0
M  END
>  <ID>  (399) 


>  <MOLENAME>  (399) 
ESTRADIOL CYPIONATE

>  <therap>  (399) 
estrogen

>  <ref>  (399) 
Drug Saf 9:365 ((1993); J Reprod Med 39:343 (1994)

>  <cas#>  (399) 
313-06-4

>  <source>  (399) 
semisynthetic

>  <status>  (399) 
USP

>  <tradename>  (399) 
DEPO

>  <SMILES>  (399) 
C[C@]12CCC3c4c(cc(O)cc4)CCC3C1CC[C@@H]2OC(=O)CCC1CCCC1

>  <standardized_failed>  (399) 
False

$$$$

     RDKit          2D

 26 29  0  0  0  0  0  0  0  0999 V2000
    5.9375   -3.8542    0.0000 C   0  0  0  0  0  0  0  0  0  0  0  0
    5.9375   -4.6792    0.0000 C   0  0  0  0  0  0  0  0  0  0  0  0
    5.2167   -5.0917    0.0000 C   0  0  0  0  0  0  0  0  0  0  0  0
    4.5042   -4.6792    0.0000 C   0  0  0  0  0  0  0  0  0  0  0  0
    3.7917   -5.0917    0.0000 C   0  0  0  0  0  0  0  0  0  0  0  0
    6.7167   -3.6000    0.0000 C   0  0  0  0  0  0  0  0  0  0  0  0
    3.7917   -5.9250    0.0000 C   0  0  0  0  0  0  0  0  0  0  0  0
    5.2167   -3.4417    0.0000 C   0  0  0  0  0  0  0  0  0  0  0  0
    4.5042   -3.8542    0.0000 C   0  0  0  0  0  0  0  0  0  0  0  0
    6.7167   -4.9375    0.0000 C   0  0  0  0  0  0  0  0  0  0  0  0
    5.2167   -5.9250    0.0000 C   0  0  0  0  0  0  0  0  0  0  0  0
    6.9750   -2.8125    0.0000 O   0  0  0  0  0  0  0  0  0  0  0  0
    3.0792   -4.6792    0.0000 C   0  0  0  0  0  0  0  0  0  0  0  0
    7.7792   -2.6375    0.0000 C   0  0  0  0  0  0  0  0  0  0  0  0
    4.5042   -6.3375    0.0000 C   0  0  0  0  0  0  0  0  0  0  0  0
    7.2042   -4.2667    0.0000 C   0  0  0  0  0  0  0  0  0  0  0  0
    3.0792   -6.3375    0.0000 C   0  0  0  0  0  0  0  0  0  0  0  0
    8.3292   -3.2417    0.0000 O   0  0  0  0  0  0  0  0  0  0  0  0
    2.3625   -5.9250    0.0000 C   0  0  0  0  0  0  0  0  0  0  0  0
    2.3625   -5.0917    0.0000 C   0  0  0  0  0  0  0  0  0  0  0  0
    5.9500   -3.0875    0.0000 C   0  0  0  0  0  0  0  0  0  0  0  0
    1.6417   -6.3417    0.0000 O   0  0  0  0  0  0  0  0  0  0  0  0
    8.0292   -1.8500    0.0000 C   0  0  0  0  0  0  0  0  0  0  0  0
    8.8375   -1.6750    0.0000 C   0  0  0  0  0  0  0  0  0  0  0  0
    9.0917   -0.8875    0.0000 C   0  0  0  0  0  0  0  0  0  0  0  0
    9.8917   -0.7125    0.0000 C   0  0  0  0  0  0  0  0  0  0  0  0
  2  1  1  0
  3  2  1  0
  4  9  1  0
  5  4  1  0
  6  1  1  0
  7  5  2  0
  8  1  1  0
  9  8  1  0
 10  2  1  0
 11  3  1  0
  6 12  1  1
 13  5  1  0
 14 12  1  0
 15 11  1  0
 16  6  1  0
 17  7  1  0
 18 14  2  0
 19 20  1  0
 20 13  2  0
  1 21  1  1
 22 19  1  0
 23 14  1  0
 24 23  1  0
 25 24  1  0
 26 25  1  0
 10 16  1  0
  3  4  1  0
  7 15  1  0
 17 19  2  0
M  END
>  <ID>  (400) 


>  <MOLENAME>  (400) 
ESTRADIOL VALERATE

>  <therap>  (400) 
estrogen

>  <ref>  (400) 
Expert Opin. Pharmacother. (2010), 11(7), 1147-1157; Acta Endocrinol. (1960), 35, 59-68; J. Am. Chem. Soc. (1956), 78, 3755-61

>  <cas#>  (400) 
979-32-8

>  <source>  (400) 
semisynthetic; NSC-17590

>  <status>  (400) 
USP

>  <tradename>  (400) 
DELESTRGEN

>  <SMILES>  (400) 
CCCCC(=O)O[C@H]1CCC2C3CCc4c(ccc(O)c4)C3CC[C@@]21C

>  <standardized_failed>  (400) 
False

$$$$

     RDKit          2D

 21 24  0  0  0  0  0  0  0  0999 V2000
    7.2000   -2.8667    0.0000 C   0  0  0  0  0  0  0  0  0  0  0  0
    7.2000   -3.6167    0.0000 C   0  0  0  0  0  0  0  0  0  0  0  0
    6.5500   -3.9917    0.0000 C   0  0  0  0  0  0  0  0  0  0  0  0
    5.9000   -3.6167    0.0000 C   0  0  0  0  0  0  0  0  0  0  0  0
    5.2500   -3.9917    0.0000 C   0  0  0  0  0  0  0  0  0  0  0  0
    7.9125   -2.6375    0.0000 C   0  0  0  0  0  0  0  0  0  0  0  0
    7.9125   -3.8500    0.0000 C   0  0  0  0  0  0  0  0  0  0  0  0
    5.2500   -4.7417    0.0000 C   0  0  0  0  0  0  0  0  0  0  0  0
    8.3500   -3.2375    0.0000 C   0  0  0  0  0  0  0  0  0  0  0  0
    6.5500   -2.5000    0.0000 C   0  0  0  0  0  0  0  0  0  0  0  0
    5.9000   -2.8667    0.0000 C   0  0  0  0  0  0  0  0  0  0  0  0
    6.5500   -4.7417    0.0000 C   0  0  0  0  0  0  0  0  0  0  0  0
    4.6125   -3.6167    0.0000 C   0  0  0  0  0  0  0  0  0  0  0  0
    5.9000   -5.1167    0.0000 C   0  0  0  0  0  0  0  0  0  0  0  0
    4.6125   -5.1167    0.0000 C   0  0  0  0  0  0  0  0  0  0  0  0
    3.9625   -4.7417    0.0000 C   0  0  0  0  0  0  0  0  0  0  0  0
    8.0750   -1.9125    0.0000 O   0  0  0  0  0  0  0  0  0  0  0  0
    3.9625   -3.9917    0.0000 C   0  0  0  0  0  0  0  0  0  0  0  0
    7.2042   -2.1167    0.0000 C   0  0  0  0  0  0  0  0  0  0  0  0
    8.9792   -3.2417    0.0000 O   0  0  0  0  0  0  0  0  0  0  0  0
    3.3042   -5.1250    0.0000 O   0  0  0  0  0  0  0  0  0  0  0  0
  2  1  1  0
  3  2  1  0
  4 11  1  0
  5  4  1  0
  6  1  1  0
  7  2  1  0
  8  5  2  0
  9  6  1  0
 10  1  1  0
 11 10  1  0
 12  3  1  0
 13  5  1  0
 14 12  1  0
 15  8  1  0
 16 18  1  0
  6 17  1  1
 18 13  2  0
  1 19  1  1
  9 20  1  6
 21 16  1  0
  9  7  1  0
  4  3  1  0
 14  8  1  0
 16 15  2  0
M  END
>  <ID>  (401) 


>  <MOLENAME>  (401) 
ESTRIOL

>  <therap>  (401) 
estrogen

>  <ref>  (401) 
JACS 76:2943 (1954); Biochem Prep 12:81 (1968); J Steroid Biochem 20:945 (1984)

>  <cas#>  (401) 
50-27-1, 514-68-1 [as, succinate]

>  <source>  (401) 
mammalian hormone

>  <status>  (401) 
USP, INN, BAN, JAN

>  <tradename>  (401) 
THEELOL

>  <SMILES>  (401) 
C[C@]12CCC3c4c(cc(O)cc4)CCC3C1C[C@@H](O)[C@@H]2O

>  <standardized_failed>  (401) 
False

$$$$

     RDKit          2D

 20 23  0  0  0  0  0  0  0  0999 V2000
    7.1167   -2.8417    0.0000 C   0  0  0  0  0  0  0  0  0  0  0  0
    7.1167   -3.6750    0.0000 C   0  0  0  0  0  0  0  0  0  0  0  0
    6.4042   -4.0875    0.0000 C   0  0  0  0  0  0  0  0  0  0  0  0
    5.6917   -3.6750    0.0000 C   0  0  0  0  0  0  0  0  0  0  0  0
    4.9750   -4.0875    0.0000 C   0  0  0  0  0  0  0  0  0  0  0  0
    4.9750   -4.9167    0.0000 C   0  0  0  0  0  0  0  0  0  0  0  0
    7.9042   -2.5917    0.0000 C   0  0  0  0  0  0  0  0  0  0  0  0
    6.4042   -2.4292    0.0000 C   0  0  0  0  0  0  0  0  0  0  0  0
    5.6917   -2.8417    0.0000 C   0  0  0  0  0  0  0  0  0  0  0  0
    7.9042   -3.9292    0.0000 C   0  0  0  0  0  0  0  0  0  0  0  0
    6.4042   -4.9167    0.0000 C   0  0  0  0  0  0  0  0  0  0  0  0
    4.2625   -3.6750    0.0000 C   0  0  0  0  0  0  0  0  0  0  0  0
    5.6917   -5.3292    0.0000 C   0  0  0  0  0  0  0  0  0  0  0  0
    4.2625   -5.3292    0.0000 C   0  0  0  0  0  0  0  0  0  0  0  0
    8.3875   -3.2542    0.0000 C   0  0  0  0  0  0  0  0  0  0  0  0
    8.1542   -1.8042    0.0000 O   0  0  0  0  0  0  0  0  0  0  0  0
    3.5417   -4.9167    0.0000 C   0  0  0  0  0  0  0  0  0  0  0  0
    3.5417   -4.0875    0.0000 C   0  0  0  0  0  0  0  0  0  0  0  0
    7.1167   -2.0167    0.0000 C   0  0  0  0  0  0  0  0  0  0  0  0
    2.8250   -5.3375    0.0000 O   0  0  0  0  0  0  0  0  0  0  0  0
  2  1  1  0
  3  2  1  0
  4  9  1  0
  5  4  1  0
  6  5  2  0
  7  1  1  0
  8  1  1  0
  9  8  1  0
 10  2  1  0
 11  3  1  0
 12  5  1  0
 13 11  1  0
 14  6  1  0
 15  7  1  0
 16  7  2  0
 17 18  1  0
 18 12  2  0
  1 19  1  1
 20 17  1  0
 15 10  1  0
  4  3  1  0
 13  6  1  0
 17 14  2  0
M  END
>  <ID>  (402) 


>  <MOLENAME>  (402) 
ESTRONE

>  <therap>  (402) 
estrogen

>  <ref>  (402) 
Anal Profiles Drug Subs 12:135 (1983)

>  <cas#>  (402) 
53-16-7

>  <source>  (402) 
pregnacy urine, dates and Punica granatum seeds

>  <status>  (402) 
USP, INN, BAN

>  <tradename>  (402) 
THEELIN

>  <SMILES>  (402) 
C[C@]12CCC3c4c(cc(O)cc4)CCC3C1CCC2=O

>  <standardized_failed>  (402) 
False

$$$$

     RDKit          2D

 19 19  0  0  0  0  0  0  0  0999 V2000
    2.5292   -1.8167    0.0000 C   0  0  0  0  0  0  0  0  0  0  0  0
    2.9042   -2.4667    0.0000 C   0  0  0  0  0  0  0  0  0  0  0  0
    1.7792   -1.8167    0.0000 C   0  0  0  0  0  0  0  0  0  0  0  0
    3.6542   -2.4667    0.0000 C   0  0  0  0  0  0  0  0  0  0  0  0
    2.9042   -1.1667    0.0000 C   0  0  0  0  0  0  0  0  0  0  0  0
    1.4042   -2.4667    0.0000 C   0  0  0  0  0  0  0  0  0  0  0  0
    4.0292   -1.8167    0.0000 C   0  0  0  0  0  0  0  0  0  0  0  0
    5.9042   -1.1667    0.0000 C   0  0  0  0  0  0  0  0  0  0  0  0
    1.4042   -1.1667    0.0000 O   0  0  0  0  0  0  0  0  0  0  0  0
    4.7792   -1.8167    0.0000 O   0  0  0  0  0  0  0  0  0  0  0  0
    3.6542   -1.1667    0.0000 C   0  0  0  0  0  0  0  0  0  0  0  0
    6.2792   -0.5167    0.0000 O   0  0  0  0  0  0  0  0  0  0  0  0
    2.5250   -3.1167    0.0000 Cl  0  0  0  0  0  0  0  0  0  0  0  0
    4.0292   -3.1167    0.0000 Cl  0  0  0  0  0  0  0  0  0  0  0  0
    1.7792   -3.1125    0.0000 C   0  0  0  0  0  0  0  0  0  0  0  0
    5.1542   -1.1667    0.0000 C   0  0  0  0  0  0  0  0  0  0  0  0
    6.2792   -1.8167    0.0000 O   0  0  0  0  0  0  0  0  0  0  0  0
    0.6542   -2.4667    0.0000 C   0  0  0  0  0  0  0  0  0  0  0  0
    0.2792   -1.8167    0.0000 C   0  0  0  0  0  0  0  0  0  0  0  0
  2  1  2  0
  3  1  1  0
  4  2  1  0
  5  1  1  0
  6  3  1  0
  7 11  1  0
  8 16  1  0
  9  3  2  0
 10  7  1  0
 11  5  2  0
 12  8  2  0
 13  2  1  0
 14  4  1  0
 15  6  2  0
 16 10  1  0
 17  8  1  0
 18  6  1  0
 19 18  1  0
  7  4  2  0
M  END
>  <ID>  (403) 


>  <MOLENAME>  (403) 
ETHACRYNIC ACID

>  <therap>  (403) 
diuretic

>  <ref>  (403) 
Ann. Rev. Pharmacol. Toxicol. (1981), 21, 265-93; Circulation (1965), 31, 5-18; JAMA, J. Am. Med. Assoc. (1963), 185, 854-63

>  <cas#>  (403) 
58-54-8

>  <source>  (403) 
synthetic; MK-595, NSC-85791

>  <status>  (403) 
USP, INN, BAN, JAN

>  <tradename>  (403) 
EDECRIN

>  <SMILES>  (403) 
C=C(CC)C(=O)c1c(Cl)c(Cl)c(OCC(=O)O)cc1

>  <standardized_failed>  (403) 
False

$$$$

     RDKit          2D

 16 13  0  0  0  0  0  0  0  0999 V2000
    7.0792   -4.8542    0.0000 N   0  0  0  0  0  0  0  0  0  0  0  0
    4.9292   -4.4417    0.0000 N   0  0  0  0  0  0  0  0  0  0  0  0
    4.3000   -3.3667    0.0000 Cl  0  0  0  0  0  0  0  0  0  0  0  0
    8.4792   -4.6542    0.0000 Cl  0  0  0  0  0  0  0  0  0  0  0  0
    4.9292   -6.0917    0.0000 O   0  0  0  0  0  0  0  0  0  0  0  0
    5.6500   -5.6792    0.0000 O   0  0  0  0  0  0  0  0  0  0  0  0
    7.0792   -5.6792    0.0000 C   0  0  0  0  0  0  0  0  0  0  0  0
    4.2167   -4.8542    0.0000 C   0  0  0  0  0  0  0  0  0  0  0  0
    5.6500   -4.8542    0.0000 C   0  0  0  0  0  0  0  0  0  0  0  0
    6.3667   -4.4417    0.0000 C   0  0  0  0  0  0  0  0  0  0  0  0
    6.3667   -6.0917    0.0000 C   0  0  0  0  0  0  0  0  0  0  0  0
    4.2167   -5.6792    0.0000 C   0  0  0  0  0  0  0  0  0  0  0  0
    3.5000   -4.4417    0.0000 C   0  0  0  0  0  0  0  0  0  0  0  0
    7.7917   -6.0917    0.0000 C   0  0  0  0  0  0  0  0  0  0  0  0
    2.7792   -4.8542    0.0000 C   0  0  0  0  0  0  0  0  0  0  0  0
    7.7917   -6.9250    0.0000 C   0  0  0  0  0  0  0  0  0  0  0  0
  2  9  1  0
  5 12  1  0
  6 11  1  0
  7  1  1  0
  8  2  1  0
  9 10  1  0
 10  1  1  0
  7 11  1  1
  8 12  1  6
 13  8  1  0
 14  7  1  0
 15 13  1  0
 16 14  1  0
M  END
>  <ID>  (404) 


>  <MOLENAME>  (404) 
ETHAMBUTOL HYDROCHLORIDE

>  <therap>  (404) 
antibacterial (tuberculostatic)

>  <ref>  (404) 
Lung Biol. Health Dis. (2010), 237, 113-143; Ann. N. Y. Acad. Sci. (1966), 135(2), 686-710; J. Bacteriol. (1963), 86, 749-56

>  <cas#>  (404) 
1070-11-7, 74-55-5 [ethambutol]

>  <source>  (404) 
synthetic; CL-40881

>  <status>  (404) 
USP, INN, BAN, JAN

>  <tradename>  (404) 
MYAMBUTOL

>  <SMILES>  (404) 
CC[C@@H](CO)NCCN[C@@H](CC)CO

>  <standardized_failed>  (404) 
False

$$$$

     RDKit          2D

 22 25  0  0  0  0  0  0  0  0999 V2000
    7.0667   -4.1542    0.0000 C   0  0  0  0  0  0  0  0  0  0  0  0
    7.0667   -4.9792    0.0000 C   0  0  0  0  0  0  0  0  0  0  0  0
    6.3500   -5.3917    0.0000 C   0  0  0  0  0  0  0  0  0  0  0  0
    5.6375   -4.9792    0.0000 C   0  0  0  0  0  0  0  0  0  0  0  0
    4.9167   -5.3917    0.0000 C   0  0  0  0  0  0  0  0  0  0  0  0
    7.8500   -3.9000    0.0000 C   0  0  0  0  0  0  0  0  0  0  0  0
    4.9167   -6.2250    0.0000 C   0  0  0  0  0  0  0  0  0  0  0  0
    8.5750   -3.9292    0.0000 C   0  0  0  0  0  0  0  0  0  0  0  0
    6.3500   -3.7417    0.0000 C   0  0  0  0  0  0  0  0  0  0  0  0
    5.6375   -4.1542    0.0000 C   0  0  0  0  0  0  0  0  0  0  0  0
    7.8500   -5.2375    0.0000 C   0  0  0  0  0  0  0  0  0  0  0  0
    6.3500   -6.2250    0.0000 C   0  0  0  0  0  0  0  0  0  0  0  0
    9.5125   -3.9917    0.0000 C   0  0  0  0  0  0  0  0  0  0  0  0
    4.2042   -4.9792    0.0000 C   0  0  0  0  0  0  0  0  0  0  0  0
    5.6375   -6.6375    0.0000 C   0  0  0  0  0  0  0  0  0  0  0  0
    8.3292   -4.5667    0.0000 C   0  0  0  0  0  0  0  0  0  0  0  0
    4.2042   -6.6375    0.0000 C   0  0  0  0  0  0  0  0  0  0  0  0
    3.4917   -6.2250    0.0000 C   0  0  0  0  0  0  0  0  0  0  0  0
    8.1875   -3.1417    0.0000 O   0  0  0  0  0  0  0  0  0  0  0  0
    3.4917   -5.3917    0.0000 C   0  0  0  0  0  0  0  0  0  0  0  0
    7.0667   -3.3250    0.0000 C   0  0  0  0  0  0  0  0  0  0  0  0
    2.7667   -6.6417    0.0000 O   0  0  0  0  0  0  0  0  0  0  0  0
  2  1  1  0
  3  2  1  0
  4 10  1  0
  5  4  1  0
  6  1  1  0
  7  5  2  0
  6  8  1  0
  9  1  1  0
 10  9  1  0
 11  2  1  0
 12  3  1  0
 13  8  3  0
 14  5  1  0
 15 12  1  0
 16  6  1  0
 17  7  1  0
 18 20  1  0
  6 19  1  1
 20 14  2  0
  1 21  1  1
 22 18  1  0
 16 11  1  0
  4  3  1  0
 15  7  1  0
 18 17  2  0
M  END
>  <ID>  (405) 


>  <MOLENAME>  (405) 
ETHINYL ESTRADIOL

>  <therap>  (405) 
estrogen, plus progestogen as oral contraceptive

>  <ref>  (405) 
Am. J. Obstet. Gynecol. (1989), 160(5 Pt 2), 1260-4; Int. J. Fertil. (1963), 8, 589-600; Am. J. Obstet. Gynecol. (1947), 54(5), 855-60

>  <cas#>  (405) 
57-63-6

>  <source>  (405) 
semisynthetic NSC-10973;

>  <status>  (405) 
USP, INN, BAN, JAN

>  <tradename>  (405) 
ESTINYL

>  <SMILES>  (405) 
C#C[C@]1(O)CCC2C3CCc4c(ccc(O)c4)C3CC[C@@]21C

>  <standardized_failed>  (405) 
False

$$$$

     RDKit          2D

 11 11  0  0  0  0  0  0  0  0999 V2000
    4.4125  -11.4292    0.0000 C   0  0  0  0  0  0  0  0  0  0  0  0
    4.4125  -10.6792    0.0000 C   0  0  0  0  0  0  0  0  0  0  0  0
    3.7625  -11.8000    0.0000 S   0  0  0  0  0  0  0  0  0  0  0  0
    4.4125   -9.1667    0.0000 N   0  0  0  0  0  0  0  0  0  0  0  0
    5.0667  -10.3042    0.0000 C   0  0  0  0  0  0  0  0  0  0  0  0
    5.0667   -9.5500    0.0000 C   0  0  0  0  0  0  0  0  0  0  0  0
    5.0625  -11.8042    0.0000 N   0  0  0  0  0  0  0  0  0  0  0  0
    3.7667   -9.5500    0.0000 C   0  0  0  0  0  0  0  0  0  0  0  0
    3.7667  -10.3042    0.0000 C   0  0  0  0  0  0  0  0  0  0  0  0
    5.7167   -9.1750    0.0000 C   0  0  0  0  0  0  0  0  0  0  0  0
    6.3667   -9.5500    0.0000 C   0  0  0  0  0  0  0  0  0  0  0  0
  2  1  1  0
  3  1  2  0
  4  8  1  0
  5  2  2  0
  6  5  1  0
  7  1  1  0
  8  9  2  0
  9  2  1  0
 10  6  1  0
 11 10  1  0
  4  6  2  0
M  END
>  <ID>  (406) 


>  <MOLENAME>  (406) 
ETHIONAMIDE

>  <therap>  (406) 
antibacterial, tuberculostatic

>  <ref>  (406) 
J Biol Chem 277:12824 (2002); Am J Trop Med Hyg 74:457 (2006)

>  <cas#>  (406) 
536-33-4

>  <source>  (406) 
synthetic; 1314-TH

>  <status>  (406) 
USP, INN, BAN, JAN

>  <tradename>  (406) 
TRECATOR

>  <SMILES>  (406) 
CCc1nccc(C(N)=S)c1

>  <standardized_failed>  (406) 
False

$$$$

     RDKit          2D

 23 24  0  0  0  0  0  0  0  0999 V2000
    6.1667   -5.5750    0.0000 N   0  0  0  0  0  0  0  0  0  0  0  0
    6.1667   -7.0792    0.0000 S   0  0  0  0  0  0  0  0  0  0  0  0
    5.5167   -5.9542    0.0000 C   0  0  0  0  0  0  0  0  0  0  0  0
    6.8167   -5.9542    0.0000 C   0  0  0  0  0  0  0  0  0  0  0  0
    6.1667   -4.8250    0.0000 C   0  0  0  0  0  0  0  0  0  0  0  0
    5.5167   -6.7042    0.0000 C   0  0  0  0  0  0  0  0  0  0  0  0
    6.8167   -6.7042    0.0000 C   0  0  0  0  0  0  0  0  0  0  0  0
    6.8167   -4.4417    0.0000 C   0  0  0  0  0  0  0  0  0  0  0  0
    6.8167   -3.7000    0.0000 N   0  0  0  0  0  0  0  0  0  0  0  0
    8.5125   -3.7792    0.0000 Cl  0  0  0  0  0  0  0  0  0  0  0  0
    4.8542   -5.5750    0.0000 C   0  0  0  0  0  0  0  0  0  0  0  0
    7.4792   -5.5750    0.0000 C   0  0  0  0  0  0  0  0  0  0  0  0
    7.4792   -7.0792    0.0000 C   0  0  0  0  0  0  0  0  0  0  0  0
    4.8542   -7.0792    0.0000 C   0  0  0  0  0  0  0  0  0  0  0  0
    7.4667   -3.3250    0.0000 C   0  0  0  0  0  0  0  0  0  0  0  0
    6.1667   -3.3250    0.0000 C   0  0  0  0  0  0  0  0  0  0  0  0
    7.4667   -4.8250    0.0000 C   0  0  0  0  0  0  0  0  0  0  0  0
    7.4667   -2.5750    0.0000 C   0  0  0  0  0  0  0  0  0  0  0  0
    6.1667   -2.5750    0.0000 C   0  0  0  0  0  0  0  0  0  0  0  0
    4.2167   -5.9542    0.0000 C   0  0  0  0  0  0  0  0  0  0  0  0
    8.1292   -5.9542    0.0000 C   0  0  0  0  0  0  0  0  0  0  0  0
    8.1292   -6.7042    0.0000 C   0  0  0  0  0  0  0  0  0  0  0  0
    4.2167   -6.7042    0.0000 C   0  0  0  0  0  0  0  0  0  0  0  0
  2  7  1  0
  3  1  1  0
  4  1  1  0
  5  1  1  0
  6  3  2  0
  7  4  2  0
  8  5  1  0
  9  8  1  0
 11  3  1  0
 12  4  1  0
 13  7  1  0
 14  6  1  0
 15  9  1  0
 16  9  1  0
 17  8  1  0
 18 15  1  0
 19 16  1  0
 20 11  2  0
 21 12  2  0
 22 21  1  0
 23 20  1  0
  2  6  1  0
 22 13  2  0
 23 14  2  0
M  END
>  <ID>  (407) 


>  <MOLENAME>  (407) 
ETHOPROPAZINE HYDROCHLORIDE

>  <therap>  (407) 
antiparkinsonian, anticholinergic

>  <ref>  (407) 
J. Pharm. Pharmacol. (1998), 50(11), 1299-1305; Compt. Rend. (1951), 232, 2232-3; J. Physiol. (1950), 42, 877-89

>  <cas#>  (407) 
1094-08-2, 522-00-9 [ethopropazine]

>  <source>  (407) 
synthetic

>  <status>  (407) 
USP-XXIII, INN, BAN

>  <tradename>  (407) 
PARSIDOL

>  <SMILES>  (407) 
CCN(CC)C(C)CN1c2c(cccc2)Sc2c1cccc2

>  <standardized_failed>  (407) 
False

$$$$

     RDKit          2D

 22 22  0  0  0  0  0  0  0  0999 V2000
    7.6750   -5.7917    0.0000 N   0  0  0  0  0  0  0  0  0  0  0  0
    6.5500   -3.8500    0.0000 C   0  0  0  0  0  0  0  0  0  0  0  0
    7.3000   -5.1500    0.0000 C   0  0  0  0  0  0  0  0  0  0  0  0
    6.1750   -4.5000    0.0000 O   0  0  0  0  0  0  0  0  0  0  0  0
    7.3000   -6.4500    0.0000 C   0  0  0  0  0  0  0  0  0  0  0  0
    6.5500   -5.1500    0.0000 C   0  0  0  0  0  0  0  0  0  0  0  0
    6.1750   -3.2042    0.0000 C   0  0  0  0  0  0  0  0  0  0  0  0
    7.3000   -3.8500    0.0000 O   0  0  0  0  0  0  0  0  0  0  0  0
    6.5500   -6.4500    0.0000 C   0  0  0  0  0  0  0  0  0  0  0  0
    6.1750   -5.7917    0.0000 C   0  0  0  0  0  0  0  0  0  0  0  0
    5.4250   -3.2042    0.0000 C   0  0  0  0  0  0  0  0  0  0  0  0
    8.4250   -5.7917    0.0000 C   0  0  0  0  0  0  0  0  0  0  0  0
    6.5500   -2.5542    0.0000 O   0  0  0  0  0  0  0  0  0  0  0  0
    9.0125   -4.9292    0.0000 Cl  0  0  0  0  0  0  0  0  0  0  0  0
    7.6750   -4.5000    0.0000 C   0  0  0  0  0  0  0  0  0  0  0  0
    7.9000   -7.2667    0.0000 C   0  0  0  0  0  0  0  0  0  0  0  0
    6.8042   -7.2667    0.0000 C   0  0  0  0  0  0  0  0  0  0  0  0
    5.0542   -2.5542    0.0000 C   0  0  0  0  0  0  0  0  0  0  0  0
    5.0500   -3.8542    0.0000 C   0  0  0  0  0  0  0  0  0  0  0  0
    4.3000   -2.5542    0.0000 C   0  0  0  0  0  0  0  0  0  0  0  0
    4.3000   -3.8542    0.0000 C   0  0  0  0  0  0  0  0  0  0  0  0
    3.9250   -3.2042    0.0000 C   0  0  0  0  0  0  0  0  0  0  0  0
  2  4  1  0
  3  1  1  0
  4  6  1  0
  5  1  1  0
  6  3  1  0
  7  2  1  0
  8  2  2  0
  9  5  1  0
 10  9  1  0
 11  7  1  0
 12  1  1  0
 13  7  1  0
 15  3  1  0
 16  5  1  0
 17  5  1  0
 18 11  2  0
 19 11  1  0
 20 18  1  0
 21 19  2  0
 22 20  2  0
 10  6  1  0
 21 22  1  0
M  END
>  <ID>  (408) 


>  <MOLENAME>  (408) 
EUCATROPINE HYDROCHLORIDE

>  <therap>  (408) 
anticholinergic (opthalmic)

>  <ref>  (408) 
Pharmazie (1995), 50(7), 493-5; Invest. Ophthalmol. (1973), 12(7), 542-4; Am. J. Ophthalmol. (1936), 20, 33-9

>  <cas#>  (408) 
536-93-6, 100-91-4 [eucatropine]

>  <source>  (408) 
semisynthetic

>  <status>  (408) 
USP, INN, BAN

>  <tradename>  (408) 
nan

>  <SMILES>  (408) 
CC1C(OC(=O)C(O)c2ccccc2)CCC(C)(C)N1C

>  <standardized_failed>  (408) 
False

$$$$

     RDKit          2D

 12 12  0  0  0  0  0  0  0  0999 V2000
    4.4750  -10.0792    0.0000 C   0  0  0  0  0  0  0  0  0  0  0  0
    3.8167   -9.7000    0.0000 C   0  0  0  0  0  0  0  0  0  0  0  0
    4.4750  -10.8292    0.0000 C   0  0  0  0  0  0  0  0  0  0  0  0
    3.1750  -10.0792    0.0000 C   0  0  0  0  0  0  0  0  0  0  0  0
    3.1667  -12.3292    0.0000 C   0  0  0  0  0  0  0  0  0  0  0  0
    3.1667  -13.0792    0.0000 C   0  0  0  0  0  0  0  0  0  0  0  0
    3.8167  -11.2042    0.0000 C   0  0  0  0  0  0  0  0  0  0  0  0
    3.1750  -10.8292    0.0000 C   0  0  0  0  0  0  0  0  0  0  0  0
    5.1250   -9.7042    0.0000 O   0  0  0  0  0  0  0  0  0  0  0  0
    3.8167   -8.9500    0.0000 O   0  0  0  0  0  0  0  0  0  0  0  0
    3.8167  -11.9542    0.0000 C   0  0  0  0  0  0  0  0  0  0  0  0
    5.7750  -10.0792    0.0000 C   0  0  0  0  0  0  0  0  0  0  0  0
  2  1  2  0
  3  1  1  0
  4  2  1  0
  5 11  1  0
  6  5  2  0
  7  3  2  0
  8  7  1  0
  9  1  1  0
 10  2  1  0
 11  7  1  0
 12  9  1  0
  8  4  2  0
M  END
>  <ID>  (409) 


>  <MOLENAME>  (409) 
EUGENOL

>  <therap>  (409) 
analgesic (topical), antiseptic, antifungal

>  <ref>  (409) 
Nat. Prod. Comm. (2010), 5(12), 1999-2006; Curr. Bioact. Compd. (2006), 2(1), 57-66; Oral Surg., Oral Med., Oral Pathol. (1992), 73(6), 729-37

>  <cas#>  (409) 
97-53-0

>  <source>  (409) 
common in plant essential oils

>  <status>  (409) 
USP

>  <tradename>  (409) 
nan

>  <SMILES>  (409) 
C=CCc1cc(OC)c(O)cc1

>  <standardized_failed>  (409) 
False

$$$$

     RDKit          2D

 30 33  0  0  0  0  0  0  0  0999 V2000
    7.1542   -4.4417    0.0000 C   0  0  0  0  0  0  0  0  0  0  0  0
    5.7167   -5.2667    0.0000 C   0  0  0  0  0  0  0  0  0  0  0  0
    5.0042   -5.6792    0.0000 C   0  0  0  0  0  0  0  0  0  0  0  0
    6.4375   -5.6792    0.0000 C   0  0  0  0  0  0  0  0  0  0  0  0
    7.9375   -4.1875    0.0000 C   0  0  0  0  0  0  0  0  0  0  0  0
    7.1542   -5.2667    0.0000 C   0  0  0  0  0  0  0  0  0  0  0  0
    5.0042   -6.5125    0.0000 C   0  0  0  0  0  0  0  0  0  0  0  0
    5.7167   -4.4417    0.0000 C   0  0  0  0  0  0  0  0  0  0  0  0
    6.4292   -4.0292    0.0000 C   0  0  0  0  0  0  0  0  0  0  0  0
    8.2750   -3.4292    0.0000 C   0  0  0  0  0  0  0  0  0  0  0  0
    4.2917   -6.9250    0.0000 C   0  0  0  0  0  0  0  0  0  0  0  0
    8.4167   -4.8542    0.0000 C   0  0  0  0  0  0  0  0  0  0  0  0
    7.9375   -5.5250    0.0000 C   0  0  0  0  0  0  0  0  0  0  0  0
    6.4375   -6.5125    0.0000 C   0  0  0  0  0  0  0  0  0  0  0  0
    4.2917   -5.2667    0.0000 C   0  0  0  0  0  0  0  0  0  0  0  0
    5.7167   -6.9250    0.0000 C   0  0  0  0  0  0  0  0  0  0  0  0
    3.5792   -6.5125    0.0000 C   0  0  0  0  0  0  0  0  0  0  0  0
    7.6375   -1.3375    0.0000 C   0  0  0  0  0  0  0  0  0  0  0  0
    5.7167   -6.1000    0.0000 F   0  0  0  0  0  0  0  0  0  0  0  0
    7.7875   -2.7625    0.0000 C   0  0  0  0  0  0  0  0  0  0  0  0
    9.0917   -3.3417    0.0000 O   0  0  0  0  0  0  0  0  0  0  0  0
    8.1250   -2.0042    0.0000 O   0  0  0  0  0  0  0  0  0  0  0  0
    6.8167   -1.4250    0.0000 O   0  0  0  0  0  0  0  0  0  0  0  0
    2.8542   -6.9292    0.0000 O   0  0  0  0  0  0  0  0  0  0  0  0
    8.7500   -4.3167    0.0000 O   0  0  0  0  0  0  0  0  0  0  0  0
    7.1500   -3.6167    0.0000 C   0  0  0  0  0  0  0  0  0  0  0  0
    3.5792   -5.6792    0.0000 C   0  0  0  0  0  0  0  0  0  0  0  0
    5.0000   -4.0167    0.0000 O   0  0  0  0  0  0  0  0  0  0  0  0
    5.0042   -4.8542    0.0000 C   0  0  0  0  0  0  0  0  0  0  0  0
    7.9750   -0.5792    0.0000 C   0  0  0  0  0  0  0  0  0  0  0  0
  2  8  1  0
  3  2  1  0
  4  6  1  0
  5  1  1  0
  6  1  1  0
  7  3  1  0
  8  9  1  0
  9  1  1  0
  5 10  1  0
 11  7  2  0
 12  5  1  0
 13  6  1  0
 14  4  1  0
 15  3  1  0
 16 14  1  0
 17 27  1  0
 18 22  1  0
  2 19  1  6
 20 10  1  0
 21 10  2  0
 22 20  1  0
 23 18  2  0
 24 17  2  0
  5 25  1  6
  1 26  1  1
 27 15  1  0
  8 28  1  1
  3 29  1  1
 30 18  1  0
 12 13  1  0
  2  4  1  0
 16  7  1  0
 11 17  1  0
M  END
>  <ID>  (410) 


>  <MOLENAME>  (410) 
FLUDROCORTISONE ACETATE

>  <therap>  (410) 
mineralocorticoid

>  <ref>  (410) 
Ann. Rheum. Dis. (1955), 14, 251-8; J. Am. Chem. Soc. (1954), 76, 1455-6; Science (1954), 120, 496-7

>  <cas#>  (410) 
514-36-3, 127-31-1 [fludrocortisone]

>  <source>  (410) 
semisynthetic

>  <status>  (410) 
USP, INN, BAN, JAN

>  <tradename>  (410) 
FLORINEF

>  <SMILES>  (410) 
CC(=O)OCC(=O)[C@@]1(O)CCC2C3CCC4=CC(=O)CC[C@]4(C)[C@@]3(F)[C@@H](O)C[C@@]21C

>  <standardized_failed>  (410) 
False

$$$$

     RDKit          2D

 35 38  0  0  0  0  0  0  0  0999 V2000
    4.7042   -5.0625    0.0000 C   0  0  0  0  0  0  0  0  0  0  0  0
    6.8500   -3.8167    0.0000 C   0  0  0  0  0  0  0  0  0  0  0  0
    5.4167   -4.6500    0.0000 C   0  0  0  0  0  0  0  0  0  0  0  0
    4.7042   -5.8917    0.0000 C   0  0  0  0  0  0  0  0  0  0  0  0
    6.8500   -4.6500    0.0000 C   0  0  0  0  0  0  0  0  0  0  0  0
    6.1375   -5.0625    0.0000 C   0  0  0  0  0  0  0  0  0  0  0  0
    7.6375   -3.5667    0.0000 C   0  0  0  0  0  0  0  0  0  0  0  0
    5.4167   -3.8167    0.0000 C   0  0  0  0  0  0  0  0  0  0  0  0
    3.9917   -4.6500    0.0000 C   0  0  0  0  0  0  0  0  0  0  0  0
    6.1292   -3.4042    0.0000 C   0  0  0  0  0  0  0  0  0  0  0  0
    8.1167   -4.2292    0.0000 C   0  0  0  0  0  0  0  0  0  0  0  0
    7.6375   -4.9042    0.0000 C   0  0  0  0  0  0  0  0  0  0  0  0
    6.1375   -5.8917    0.0000 C   0  0  0  0  0  0  0  0  0  0  0  0
    5.4167   -6.3042    0.0000 C   0  0  0  0  0  0  0  0  0  0  0  0
    3.9917   -6.3042    0.0000 C   0  0  0  0  0  0  0  0  0  0  0  0
    7.9750   -2.8125    0.0000 C   0  0  0  0  0  0  0  0  0  0  0  0
    6.1750   -1.5542    0.0000 C   0  0  0  0  0  0  0  0  0  0  0  0
    3.2750   -5.0625    0.0000 C   0  0  0  0  0  0  0  0  0  0  0  0
    3.2750   -5.8917    0.0000 C   0  0  0  0  0  0  0  0  0  0  0  0
    6.5125   -0.8042    0.0000 C   0  0  0  0  0  0  0  0  0  0  0  0
    6.6625   -2.2292    0.0000 O   0  0  0  0  0  0  0  0  0  0  0  0
    7.4875   -2.1417    0.0000 C   0  0  0  0  0  0  0  0  0  0  0  0
    5.4250   -5.3167    0.0000 F   0  0  0  0  0  0  0  0  0  0  0  0
    5.3542   -1.6417    0.0000 O   0  0  0  0  0  0  0  0  0  0  0  0
    8.7917   -2.7250    0.0000 O   0  0  0  0  0  0  0  0  0  0  0  0
    2.5542   -6.3125    0.0000 O   0  0  0  0  0  0  0  0  0  0  0  0
    8.4625   -3.6042    0.0000 O   0  0  0  0  0  0  0  0  0  0  0  0
    4.7042   -4.2292    0.0000 C   0  0  0  0  0  0  0  0  0  0  0  0
    6.8875   -2.9417    0.0000 C   0  0  0  0  0  0  0  0  0  0  0  0
    4.7000   -3.3917    0.0000 O   0  0  0  0  0  0  0  0  0  0  0  0
    5.4167   -7.1292    0.0000 F   0  0  0  0  0  0  0  0  0  0  0  0
    8.9417   -4.2292    0.0000 C   0  0  0  0  0  0  0  0  0  0  0  0
    7.1667   -0.2792    0.0000 C   0  0  0  0  0  0  0  0  0  0  0  0
    7.2750   -1.1417    0.0000 C   0  0  0  0  0  0  0  0  0  0  0  0
    6.2917   -0.0625    0.0000 C   0  0  0  0  0  0  0  0  0  0  0  0
  2 10  1  0
  3  1  1  0
  4  1  1  0
  5  6  1  0
  6  3  1  0
  7  2  1  0
  8  3  1  0
  9  1  1  0
 10  8  1  0
 11 12  1  0
 12  5  1  0
 13 14  1  0
 14  4  1  0
 15  4  2  0
  7 16  1  0
 17 21  1  0
 18  9  2  0
 19 18  1  0
 20 17  1  0
 21 22  1  0
 22 16  1  0
  3 23  1  6
 24 17  2  0
 25 16  2  0
 26 19  2  0
  7 27  1  6
  1 28  1  1
  2 29  1  1
  8 30  1  1
 14 31  1  6
 11 32  1  6
 33 20  1  0
 34 20  1  0
 35 20  1  0
 19 15  1  0
 13  6  1  0
  2  5  1  0
 11  7  1  0
M  END
>  <ID>  (411) 


>  <MOLENAME>  (411) 
FLUMETHAZONE PIVALATE

>  <therap>  (411) 
glucocorticoid, antiinflammatory

>  <ref>  (411) 
J. Invest. Dermatol. (1974), 63(3), 292-7; Biochem. Pharmacol. (1972), 21(16), 2161-7; Steroids (1965), 6(3), 339-49

>  <cas#>  (411) 
2002-29-1, 2135-17-3 [flumethasone]

>  <source>  (411) 
semisynthetic; NSC-107680

>  <status>  (411) 
USP, INN, BAN, JAN

>  <tradename>  (411) 
LOCORTEN

>  <SMILES>  (411) 
C[C@@H]1CC2C3C[C@H](F)C4=CC(=O)C=C[C@]4(C)[C@@]3(F)[C@@H](O)C[C@]2(C)[C@@]1(O)C(=O)COC(=O)C(C)(C)C

>  <standardized_failed>  (411) 
False

$$$$

     RDKit          2D

 32 36  0  0  0  0  0  0  0  0999 V2000
    7.1667   -3.0125    0.0000 C   0  0  0  0  0  0  0  0  0  0  0  0
    4.2375   -4.5042    0.0000 C   0  0  0  0  0  0  0  0  0  0  0  0
    6.3792   -3.2667    0.0000 C   0  0  0  0  0  0  0  0  0  0  0  0
    4.9500   -4.0917    0.0000 C   0  0  0  0  0  0  0  0  0  0  0  0
    4.2375   -5.3375    0.0000 C   0  0  0  0  0  0  0  0  0  0  0  0
    6.3792   -4.0917    0.0000 C   0  0  0  0  0  0  0  0  0  0  0  0
    5.6667   -4.5042    0.0000 C   0  0  0  0  0  0  0  0  0  0  0  0
    7.6500   -3.6792    0.0000 C   0  0  0  0  0  0  0  0  0  0  0  0
    7.8750   -2.6917    0.0000 O   0  0  0  0  0  0  0  0  0  0  0  0
    4.9500   -3.2667    0.0000 C   0  0  0  0  0  0  0  0  0  0  0  0
    3.5250   -4.0917    0.0000 C   0  0  0  0  0  0  0  0  0  0  0  0
    5.6625   -2.8542    0.0000 C   0  0  0  0  0  0  0  0  0  0  0  0
    8.6625   -2.9542    0.0000 C   0  0  0  0  0  0  0  0  0  0  0  0
    8.4167   -3.6792    0.0000 O   0  0  0  0  0  0  0  0  0  0  0  0
    7.1667   -4.3500    0.0000 C   0  0  0  0  0  0  0  0  0  0  0  0
    5.6667   -5.3375    0.0000 C   0  0  0  0  0  0  0  0  0  0  0  0
    4.9500   -5.7500    0.0000 C   0  0  0  0  0  0  0  0  0  0  0  0
    3.5250   -5.7500    0.0000 C   0  0  0  0  0  0  0  0  0  0  0  0
    7.1667   -2.1167    0.0000 C   0  0  0  0  0  0  0  0  0  0  0  0
    2.8042   -4.5042    0.0000 C   0  0  0  0  0  0  0  0  0  0  0  0
    2.8042   -5.3375    0.0000 C   0  0  0  0  0  0  0  0  0  0  0  0
    4.9500   -4.9250    0.0000 F   0  0  0  0  0  0  0  0  0  0  0  0
    7.7625   -1.6500    0.0000 O   0  0  0  0  0  0  0  0  0  0  0  0
    2.0875   -5.7542    0.0000 O   0  0  0  0  0  0  0  0  0  0  0  0
    4.2375   -3.6792    0.0000 C   0  0  0  0  0  0  0  0  0  0  0  0
    6.3917   -2.4292    0.0000 C   0  0  0  0  0  0  0  0  0  0  0  0
    4.3292   -2.8042    0.0000 O   0  0  0  0  0  0  0  0  0  0  0  0
    4.9542   -6.5542    0.0000 F   0  0  0  0  0  0  0  0  0  0  0  0
    6.5792   -1.3667    0.0000 C   0  0  0  0  0  0  0  0  0  0  0  0
    9.2917   -2.3667    0.0000 C   0  0  0  0  0  0  0  0  0  0  0  0
    9.4500   -3.3042    0.0000 C   0  0  0  0  0  0  0  0  0  0  0  0
    6.5792   -0.5167    0.0000 O   0  0  0  0  0  0  0  0  0  0  0  0
  2  4  1  0
  3  1  1  0
  4 10  1  0
  5  2  1  0
  6  3  1  0
  7  6  1  0
  8  1  1  0
  1  9  1  0
 10 12  1  0
 11  2  1  0
 12  3  1  0
 13  9  1  0
  8 14  1  0
  8 15  1  6
 16  7  1  0
 17 16  1  0
 18  5  2  0
  1 19  1  1
 20 11  2  0
 21 20  1  0
  4 22  1  6
 23 19  2  0
 24 21  2  0
  2 25  1  1
  3 26  1  1
 10 27  1  1
 17 28  1  6
 29 19  1  0
 30 13  1  0
 31 13  1  0
 32 29  1  0
 15  6  1  0
 13 14  1  0
  4  7  1  0
 17  5  1  0
 18 21  1  0
M  END
>  <ID>  (412) 


>  <MOLENAME>  (412) 
FLUOCINOLONE ACETONIDE

>  <therap>  (412) 
glucocorticoid, antiinflammatory

>  <ref>  (412) 
J. Allergy Clin. Immunol. (2000), 106(4 Suppl), S179-90; Arch. Dermatol. (1964), 89, 561; J. Am. Osteopath. Assoc. (1963), 63, 257-60

>  <cas#>  (412) 
67-73-2

>  <source>  (412) 
semisynthetic; NSC-92339

>  <status>  (412) 
USP, INN, BAN, JAN

>  <tradename>  (412) 
RETISERT

>  <SMILES>  (412) 
CC1(C)O[C@@H]2CC3C4C[C@H](F)C5=CC(=O)C=C[C@]5(C)[C@@]4(F)[C@@H](O)C[C@]3(C)[C@]2(C(=O)CO)O1

>  <standardized_failed>  (412) 
False

$$$$

     RDKit          2D

 35 39  0  0  0  0  0  0  0  0999 V2000
    7.1625   -3.4500    0.0000 C   0  0  0  0  0  0  0  0  0  0  0  0
    4.2375   -4.9375    0.0000 C   0  0  0  0  0  0  0  0  0  0  0  0
    6.3792   -3.7000    0.0000 C   0  0  0  0  0  0  0  0  0  0  0  0
    4.9500   -4.5292    0.0000 C   0  0  0  0  0  0  0  0  0  0  0  0
    4.2375   -5.7750    0.0000 C   0  0  0  0  0  0  0  0  0  0  0  0
    6.3792   -4.5292    0.0000 C   0  0  0  0  0  0  0  0  0  0  0  0
    5.6625   -4.9375    0.0000 C   0  0  0  0  0  0  0  0  0  0  0  0
    7.6500   -4.1125    0.0000 C   0  0  0  0  0  0  0  0  0  0  0  0
    7.8750   -3.1250    0.0000 O   0  0  0  0  0  0  0  0  0  0  0  0
    4.9500   -3.7000    0.0000 C   0  0  0  0  0  0  0  0  0  0  0  0
    3.5250   -4.5292    0.0000 C   0  0  0  0  0  0  0  0  0  0  0  0
    5.6625   -3.2875    0.0000 C   0  0  0  0  0  0  0  0  0  0  0  0
    8.6625   -3.3875    0.0000 C   0  0  0  0  0  0  0  0  0  0  0  0
    8.4167   -4.1125    0.0000 O   0  0  0  0  0  0  0  0  0  0  0  0
    7.1625   -4.7875    0.0000 C   0  0  0  0  0  0  0  0  0  0  0  0
    7.1667   -2.5500    0.0000 C   0  0  0  0  0  0  0  0  0  0  0  0
    5.6625   -5.7750    0.0000 C   0  0  0  0  0  0  0  0  0  0  0  0
    4.9500   -6.1875    0.0000 C   0  0  0  0  0  0  0  0  0  0  0  0
    3.5250   -6.1875    0.0000 C   0  0  0  0  0  0  0  0  0  0  0  0
    2.8042   -4.9375    0.0000 C   0  0  0  0  0  0  0  0  0  0  0  0
    2.8042   -5.7750    0.0000 C   0  0  0  0  0  0  0  0  0  0  0  0
    5.7625   -0.8667    0.0000 C   0  0  0  0  0  0  0  0  0  0  0  0
    4.9500   -5.3625    0.0000 F   0  0  0  0  0  0  0  0  0  0  0  0
    6.5750   -1.8042    0.0000 C   0  0  0  0  0  0  0  0  0  0  0  0
    7.7625   -2.0875    0.0000 O   0  0  0  0  0  0  0  0  0  0  0  0
    6.5792   -0.9542    0.0000 O   0  0  0  0  0  0  0  0  0  0  0  0
    5.5417   -0.0875    0.0000 O   0  0  0  0  0  0  0  0  0  0  0  0
    2.0875   -6.1917    0.0000 O   0  0  0  0  0  0  0  0  0  0  0  0
    4.2375   -4.1125    0.0000 C   0  0  0  0  0  0  0  0  0  0  0  0
    6.3875   -2.8625    0.0000 C   0  0  0  0  0  0  0  0  0  0  0  0
    4.3250   -3.2375    0.0000 O   0  0  0  0  0  0  0  0  0  0  0  0
    4.9500   -6.9875    0.0000 F   0  0  0  0  0  0  0  0  0  0  0  0
    9.2875   -2.8000    0.0000 C   0  0  0  0  0  0  0  0  0  0  0  0
    9.4500   -3.7375    0.0000 C   0  0  0  0  0  0  0  0  0  0  0  0
    5.1125   -1.5792    0.0000 C   0  0  0  0  0  0  0  0  0  0  0  0
  2  4  1  0
  3  1  1  0
  4 10  1  0
  5  2  1  0
  6  3  1  0
  7  6  1  0
  8  1  1  0
  1  9  1  0
 10 12  1  0
 11  2  1  0
 12  3  1  0
 13  9  1  0
  8 14  1  0
  8 15  1  6
  1 16  1  1
 17  7  1  0
 18 17  1  0
 19  5  2  0
 20 11  2  0
 21 20  1  0
 22 26  1  0
  4 23  1  6
 24 16  1  0
 25 16  2  0
 26 24  1  0
 27 22  2  0
 28 21  2  0
  2 29  1  1
  3 30  1  1
 10 31  1  1
 18 32  1  6
 33 13  1  0
 34 13  1  0
 35 22  1  0
 15  6  1  0
 13 14  1  0
  4  7  1  0
 18  5  1  0
 19 21  1  0
M  END
>  <ID>  (413) 


>  <MOLENAME>  (413) 
FLUOCINONIDE

>  <therap>  (413) 
antiinflammatory, glucocorticoid

>  <ref>  (413) 
Arch. Dermatol. (1969), 99(6), 753-6; Endocrinology (1965), 76(5), 916-27; Steroids (1964), 4(1), 1-30

>  <cas#>  (413) 
356-12-7

>  <source>  (413) 
semisynthetic; NSC-101791

>  <status>  (413) 
USP, INN, BAN, JAN

>  <tradename>  (413) 
LIDEX

>  <SMILES>  (413) 
CC(=O)OCC(=O)[C@@]12OC(C)(C)O[C@@H]1CC1C3C[C@H](F)C4=CC(=O)C=C[C@]4(C)[C@@]3(F)[C@@H](O)C[C@@]12C

>  <standardized_failed>  (413) 
False

$$$$

     RDKit          2D

 27 30  0  0  0  0  0  0  0  0999 V2000
    5.0292   -6.5917    0.0000 C   0  0  0  0  0  0  0  0  0  0  0  0
    5.7417   -6.1792    0.0000 C   0  0  0  0  0  0  0  0  0  0  0  0
    7.1792   -5.3542    0.0000 C   0  0  0  0  0  0  0  0  0  0  0  0
    5.0292   -7.4250    0.0000 C   0  0  0  0  0  0  0  0  0  0  0  0
    6.4625   -6.5917    0.0000 C   0  0  0  0  0  0  0  0  0  0  0  0
    7.9625   -5.1000    0.0000 C   0  0  0  0  0  0  0  0  0  0  0  0
    7.1792   -6.1792    0.0000 C   0  0  0  0  0  0  0  0  0  0  0  0
    5.7417   -5.3542    0.0000 C   0  0  0  0  0  0  0  0  0  0  0  0
    4.3167   -6.1792    0.0000 C   0  0  0  0  0  0  0  0  0  0  0  0
    6.4542   -4.9417    0.0000 C   0  0  0  0  0  0  0  0  0  0  0  0
    6.4625   -7.4250    0.0000 C   0  0  0  0  0  0  0  0  0  0  0  0
    4.3167   -7.8375    0.0000 C   0  0  0  0  0  0  0  0  0  0  0  0
    5.7417   -7.8375    0.0000 C   0  0  0  0  0  0  0  0  0  0  0  0
    8.4417   -5.7667    0.0000 C   0  0  0  0  0  0  0  0  0  0  0  0
    7.9625   -6.4375    0.0000 C   0  0  0  0  0  0  0  0  0  0  0  0
    3.6042   -6.5917    0.0000 C   0  0  0  0  0  0  0  0  0  0  0  0
    8.3000   -4.3417    0.0000 C   0  0  0  0  0  0  0  0  0  0  0  0
    3.6042   -7.4250    0.0000 C   0  0  0  0  0  0  0  0  0  0  0  0
    5.7292   -7.0917    0.0000 F   0  0  0  0  0  0  0  0  0  0  0  0
    9.1167   -4.2542    0.0000 O   0  0  0  0  0  0  0  0  0  0  0  0
    2.8792   -7.8417    0.0000 O   0  0  0  0  0  0  0  0  0  0  0  0
    8.7875   -5.1375    0.0000 O   0  0  0  0  0  0  0  0  0  0  0  0
    5.0292   -5.7667    0.0000 C   0  0  0  0  0  0  0  0  0  0  0  0
    7.1667   -4.5292    0.0000 C   0  0  0  0  0  0  0  0  0  0  0  0
    5.0250   -4.9292    0.0000 O   0  0  0  0  0  0  0  0  0  0  0  0
    5.7417   -8.6625    0.0000 C   0  0  0  0  0  0  0  0  0  0  0  0
    7.8125   -3.6750    0.0000 C   0  0  0  0  0  0  0  0  0  0  0  0
  2  1  1  0
  3 10  1  0
  4  1  1  0
  5  2  1  0
  6  3  1  0
  7  5  1  0
  8  2  1  0
  9  1  1  0
 10  8  1  0
 11 13  1  0
 12  4  2  0
 13  4  1  0
 14 15  1  0
 15  7  1  0
 16  9  2  0
  6 17  1  0
 18 16  1  0
  2 19  1  6
 20 17  2  0
 21 18  2  0
  6 22  1  6
 23  1  1  0
  3 24  1  1
  8 25  1  1
 13 26  1  6
 27 17  1  0
 12 18  1  0
  5 11  1  0
  7  3  1  0
  6 14  1  0
M  END
>  <ID>  (414) 


>  <MOLENAME>  (414) 
FLUOROMETHOLONE

>  <therap>  (414) 
glucocorticoid, antiinflammatory

>  <ref>  (414) 
Arch. Ophthalmol. (1975), 93(10), 1011-4; Proc. Soc. Exp. Biol. Med. (1959), 101, 653-6; Metab., Clin. Exp. (1958), 7, 398-404

>  <cas#>  (414) 
426-13-1

>  <source>  (414) 
semisynthetic

>  <status>  (414) 
USP, INN, BAN, JAN

>  <tradename>  (414) 
OXYLONE

>  <SMILES>  (414) 
CC(=O)[C@@]1(O)CCC2C3C[C@H](C)C4=CC(=O)C=CC4(C)[C@@]3(F)[C@@H](O)C[C@@]21C

>  <standardized_failed>  (414) 
False

$$$$

     RDKit          2D

  9  9  0  0  0  0  0  0  0  0999 V2000
    6.3875   -3.9125    0.0000 N   0  0  0  0  0  0  0  0  0  0  0  0
    5.7375   -4.2875    0.0000 C   0  0  0  0  0  0  0  0  0  0  0  0
    5.0875   -3.9125    0.0000 C   0  0  0  0  0  0  0  0  0  0  0  0
    6.3875   -3.1625    0.0000 C   0  0  0  0  0  0  0  0  0  0  0  0
    5.7375   -2.7792    0.0000 N   0  0  0  0  0  0  0  0  0  0  0  0
    5.0875   -3.1625    0.0000 C   0  0  0  0  0  0  0  0  0  0  0  0
    5.7375   -5.0375    0.0000 O   0  0  0  0  0  0  0  0  0  0  0  0
    7.0375   -2.7875    0.0000 O   0  0  0  0  0  0  0  0  0  0  0  0
    4.4375   -4.2875    0.0000 F   0  0  0  0  0  0  0  0  0  0  0  0
  2  1  1  0
  3  2  1  0
  4  1  1  0
  5  4  1  0
  6  5  1  0
  7  2  2  0
  8  4  2  0
  9  3  1  0
  3  6  2  0
M  END
>  <ID>  (415) 


>  <MOLENAME>  (415) 
FLUOROURACIL

>  <therap>  (415) 
antineoplastic, pyrimidine antimetabolite

>  <ref>  (415) 
Curr. Med. Chem. (2011), 18(29), 4538-4556; Adv. Exp. Med. Biol. (2010), 678, 157-164; Cancer Res. (1963), 23, 1226-43

>  <cas#>  (415) 
51-21-8

>  <source>  (415) 
synthetic; Ro-2-9757

>  <status>  (415) 
USP, INN, BAN, JAN

>  <tradename>  (415) 
CARAC

>  <SMILES>  (415) 
O=c1[nH]cc(F)c(=O)[nH]1

>  <standardized_failed>  (415) 
False

$$$$

     RDKit          2D

 18 19  0  0  0  0  0  0  0  0999 V2000
    3.0917   -1.4917    0.0000 C   0  0  0  0  0  0  0  0  0  0  0  0
    4.2167   -2.1417    0.0000 C   0  0  0  0  0  0  0  0  0  0  0  0
    2.7167   -2.1417    0.0000 C   0  0  0  0  0  0  0  0  0  0  0  0
    5.3417   -2.7875    0.0000 C   0  0  0  0  0  0  0  0  0  0  0  0
    3.8417   -1.4917    0.0000 C   0  0  0  0  0  0  0  0  0  0  0  0
    4.9667   -2.1417    0.0000 C   0  0  0  0  0  0  0  0  0  0  0  0
    3.0917   -2.7875    0.0000 C   0  0  0  0  0  0  0  0  0  0  0  0
    3.8417   -2.7875    0.0000 C   0  0  0  0  0  0  0  0  0  0  0  0
    6.0917   -2.7875    0.0000 O   0  0  0  0  0  0  0  0  0  0  0  0
    1.9667   -2.1417    0.0000 C   0  0  0  0  0  0  0  0  0  0  0  0
    2.7125   -0.8375    0.0000 F   0  0  0  0  0  0  0  0  0  0  0  0
    4.9667   -3.4375    0.0000 O   0  0  0  0  0  0  0  0  0  0  0  0
    5.3417   -1.4917    0.0000 C   0  0  0  0  0  0  0  0  0  0  0  0
    1.5917   -1.4917    0.0000 C   0  0  0  0  0  0  0  0  0  0  0  0
    1.5917   -2.7917    0.0000 C   0  0  0  0  0  0  0  0  0  0  0  0
    0.8417   -2.7917    0.0000 C   0  0  0  0  0  0  0  0  0  0  0  0
    0.8417   -1.4917    0.0000 C   0  0  0  0  0  0  0  0  0  0  0  0
    0.4667   -2.1417    0.0000 C   0  0  0  0  0  0  0  0  0  0  0  0
  2  5  2  0
  3  1  2  0
  4  6  1  0
  5  1  1  0
  6  2  1  0
  7  3  1  0
  8  2  1  0
  9  4  2  0
 10  3  1  0
 11  1  1  0
 12  4  1  0
 13  6  1  0
 14 10  2  0
 15 10  1  0
 16 15  2  0
 17 14  1  0
 18 16  1  0
  8  7  2  0
 18 17  2  0
M  END
>  <ID>  (416) 


>  <MOLENAME>  (416) 
FLURBIPROFEN

>  <therap>  (416) 
antiinflammatory, analgesic

>  <ref>  (416) 
Int. J. Clin. Pract. (2007), 61(8), 1396-1406; Drugs (1979), 18(6), 417-38; Agents Actions (1973), 3(4), 210-16

>  <cas#>  (416) 
5104-49-4

>  <source>  (416) 
synthetic; BTS-18322, U-27182

>  <status>  (416) 
USP, INN, BAN, JAN

>  <tradename>  (416) 
ANSAID

>  <SMILES>  (416) 
CC(C(=O)O)c1cc(F)c(-c2ccccc2)cc1

>  <standardized_failed>  (416) 
False

$$$$

     RDKit          2D

 16 17  0  0  0  0  0  0  0  0999 V2000
    2.2042   -3.0292    0.0000 C   0  0  0  0  0  0  0  0  0  0  0  0
    1.5125   -2.7167    0.0000 N   0  0  0  0  0  0  0  0  0  0  0  0
    5.6167   -2.7167    0.0000 C   0  0  0  0  0  0  0  0  0  0  0  0
    5.1292   -2.1542    0.0000 N   0  0  0  0  0  0  0  0  0  0  0  0
    2.8500   -2.6542    0.0000 O   0  0  0  0  0  0  0  0  0  0  0  0
    4.3917   -2.3000    0.0000 N   0  0  0  0  0  0  0  0  0  0  0  0
    2.3625   -3.7667    0.0000 C   0  0  0  0  0  0  0  0  0  0  0  0
    3.4042   -3.1542    0.0000 C   0  0  0  0  0  0  0  0  0  0  0  0
    4.1500   -3.0042    0.0000 C   0  0  0  0  0  0  0  0  0  0  0  0
    3.1042   -3.8417    0.0000 C   0  0  0  0  0  0  0  0  0  0  0  0
    6.3042   -2.4292    0.0000 O   0  0  0  0  0  0  0  0  0  0  0  0
    0.9042   -3.1625    0.0000 O   0  0  0  0  0  0  0  0  0  0  0  0
    1.4292   -1.9667    0.0000 O   0  0  0  0  0  0  0  0  0  0  0  0
    5.4542   -3.4542    0.0000 O   0  0  0  0  0  0  0  0  0  0  0  0
    5.5167   -1.5125    0.0000 C   0  0  0  0  0  0  0  0  0  0  0  0
    6.2500   -1.6875    0.0000 C   0  0  0  0  0  0  0  0  0  0  0  0
  2  1  1  0
  3  4  1  0
  4  6  1  0
  5  1  1  0
  6  9  2  0
  7  1  2  0
  8  5  1  0
  9  8  1  0
 10  7  1  0
 11  3  1  0
 12  2  1  0
 13  2  2  0
 14  3  2  0
 15  4  1  0
 16 15  1  0
  8 10  2  0
 16 11  1  0
M  CHG  2   2   1  12  -1
M  END
>  <ID>  (417) 


>  <MOLENAME>  (417) 
FURAZOLIDONE

>  <therap>  (417) 
antibacterial

>  <ref>  (417) 
Infect. Dis. Ther. (1994), 9, 391-401; J. Antimicrob. Chemother. (1976), 2(4), 325-36; J. Pharm. Pharmacol. (1964), 16, 663-9

>  <cas#>  (417) 
67-45-8

>  <source>  (417) 
NF-180; synthetic

>  <status>  (417) 
USP, INN, BAN

>  <tradename>  (417) 
FUROXONE

>  <SMILES>  (417) 
O=C1OCCN1/N=C/c1ccc([N+](=O)[O-])o1

>  <standardized_failed>  (417) 
False

$$$$

     RDKit          2D

 21 22  0  0  0  0  0  0  0  0999 V2000
    1.2542   -3.0917    0.0000 S   0  0  0  0  0  0  0  0  0  0  0  0
    1.9125   -2.7125    0.0000 C   0  0  0  0  0  0  0  0  0  0  0  0
    2.5542   -1.5875    0.0000 C   0  0  0  0  0  0  0  0  0  0  0  0
    1.9125   -1.9625    0.0000 C   0  0  0  0  0  0  0  0  0  0  0  0
    3.2042   -1.9625    0.0000 C   0  0  0  0  0  0  0  0  0  0  0  0
    2.5542   -3.0875    0.0000 C   0  0  0  0  0  0  0  0  0  0  0  0
    2.5542   -0.8375    0.0000 C   0  0  0  0  0  0  0  0  0  0  0  0
    3.2042   -2.7125    0.0000 C   0  0  0  0  0  0  0  0  0  0  0  0
    3.8625   -1.5792    0.0000 N   0  0  0  0  0  0  0  0  0  0  0  0
    1.6417   -3.7500    0.0000 O   0  0  0  0  0  0  0  0  0  0  0  0
    0.8750   -2.4417    0.0000 O   0  0  0  0  0  0  0  0  0  0  0  0
    4.5042   -0.4542    0.0000 C   0  0  0  0  0  0  0  0  0  0  0  0
    4.6667    0.2833    0.0000 O   0  0  0  0  0  0  0  0  0  0  0  0
    0.6042   -3.4792    0.0000 N   0  0  0  0  0  0  0  0  0  0  0  0
    1.9042   -0.4625    0.0000 O   0  0  0  0  0  0  0  0  0  0  0  0
    5.1625   -0.8292    0.0000 C   0  0  0  0  0  0  0  0  0  0  0  0
    5.4125    0.3583    0.0000 C   0  0  0  0  0  0  0  0  0  0  0  0
    5.7167   -0.3292    0.0000 C   0  0  0  0  0  0  0  0  0  0  0  0
    3.8625   -0.8292    0.0000 C   0  0  0  0  0  0  0  0  0  0  0  0
    2.5542   -3.8375    0.0000 Cl  0  0  0  0  0  0  0  0  0  0  0  0
    3.2042   -0.4625    0.0000 O   0  0  0  0  0  0  0  0  0  0  0  0
  2  1  1  0
  3  4  1  0
  4  2  2  0
  5  8  1  0
  6  2  1  0
  7  3  1  0
  8  6  2  0
  9  5  1  0
 10  1  2  0
 11  1  2  0
 12 19  1  0
 13 12  1  0
 14  1  1  0
 15  7  2  0
 16 12  2  0
 17 13  1  0
 18 16  1  0
 19  9  1  0
 20  6  1  0
 21  7  1  0
  3  5  2  0
 17 18  2  0
M  END
>  <ID>  (418) 


>  <MOLENAME>  (418) 
FUROSEMIDE

>  <therap>  (418) 
diuretic, antihypertensive

>  <ref>  (418) 
Toxicol Appl Pharmacol 18:185 (1971); Anal Profiles Drug Subs 18:153 (`989)

>  <cas#>  (418) 
54-31-9

>  <source>  (418) 
synthetic

>  <status>  (418) 
USP, INN, BAN, JAN

>  <tradename>  (418) 
LASIX

>  <SMILES>  (418) 
NS(=O)(=O)c1cc(C(=O)O)c(NCc2ccco2)cc1Cl

>  <standardized_failed>  (418) 
False

$$$$

     RDKit          2D

 37 40  0  0  0  0  0  0  0  0999 V2000
    6.3542   -3.8542    0.0000 C   0  0  0  0  0  0  0  0  0  0  0  0
    5.6417   -4.2667    0.0000 C   0  0  0  0  0  0  0  0  0  0  0  0
    4.2125   -4.2667    0.0000 C   0  0  0  0  0  0  0  0  0  0  0  0
    6.3542   -3.0292    0.0000 C   0  0  0  0  0  0  0  0  0  0  0  0
    7.1417   -2.7750    0.0000 C   0  0  0  0  0  0  0  0  0  0  0  0
    4.9292   -3.8542    0.0000 C   0  0  0  0  0  0  0  0  0  0  0  0
    4.2125   -5.1000    0.0000 C   0  0  0  0  0  0  0  0  0  0  0  0
    7.6250   -3.4417    0.0000 C   0  0  0  0  0  0  0  0  0  0  0  0
    7.3917   -1.9875    0.0000 C   0  0  0  0  0  0  0  0  0  0  0  0
    7.1417   -4.1125    0.0000 C   0  0  0  0  0  0  0  0  0  0  0  0
    4.9292   -3.0292    0.0000 C   0  0  0  0  0  0  0  0  0  0  0  0
    5.6417   -2.6167    0.0000 C   0  0  0  0  0  0  0  0  0  0  0  0
    5.6417   -5.1000    0.0000 C   0  0  0  0  0  0  0  0  0  0  0  0
    6.8417   -1.3750    0.0000 C   0  0  0  0  0  0  0  0  0  0  0  0
    3.5000   -5.5125    0.0000 C   0  0  0  0  0  0  0  0  0  0  0  0
    3.5000   -3.8542    0.0000 C   0  0  0  0  0  0  0  0  0  0  0  0
    4.9292   -5.5125    0.0000 C   0  0  0  0  0  0  0  0  0  0  0  0
    8.4500   -3.4375    0.0000 O   0  0  0  0  0  0  0  0  0  0  0  0
    8.8625   -4.1500    0.0000 C   0  0  0  0  0  0  0  0  0  0  0  0
    2.7792   -5.1000    0.0000 C   0  0  0  0  0  0  0  0  0  0  0  0
    7.0917   -0.5917    0.0000 O   0  0  0  0  0  0  0  0  0  0  0  0
    2.7792   -4.2667    0.0000 C   0  0  0  0  0  0  0  0  0  0  0  0
    8.4500   -4.8667    0.0000 O   0  0  0  0  0  0  0  0  0  0  0  0
    9.5125   -0.0625    0.0000 C   0  0  0  0  0  0  0  0  0  0  0  0
    9.2542   -0.8500    0.0000 C   0  0  0  0  0  0  0  0  0  0  0  0
    6.3542   -4.6542    0.0000 C   0  0  0  0  0  0  0  0  0  0  0  0
    5.6417   -3.4292    0.0000 C   0  0  0  0  0  0  0  0  0  0  0  0
    4.2042   -3.4667    0.0000 C   0  0  0  0  0  0  0  0  0  0  0  0
    4.2042   -2.6042    0.0000 O   0  0  0  0  0  0  0  0  0  0  0  0
    6.0375   -1.5500    0.0000 O   0  0  0  0  0  0  0  0  0  0  0  0
    8.2000   -1.8125    0.0000 C   0  0  0  0  0  0  0  0  0  0  0  0
    8.4542   -1.0250    0.0000 C   0  0  0  0  0  0  0  0  0  0  0  0
    2.0625   -5.5167    0.0000 O   0  0  0  0  0  0  0  0  0  0  0  0
    3.5000   -6.3375    0.0000 C   0  0  0  0  0  0  0  0  0  0  0  0
    9.6917   -4.1500    0.0000 C   0  0  0  0  0  0  0  0  0  0  0  0
    8.9542    0.5500    0.0000 C   0  0  0  0  0  0  0  0  0  0  0  0
   10.3167    0.1125    0.0000 C   0  0  0  0  0  0  0  0  0  0  0  0
  2  1  1  0
  3  6  1  0
  4  1  1  0
  5  4  1  0
  6  2  1  0
  7 17  1  1
  8 10  1  0
  9  5  2  0
 10  1  1  0
 11 12  1  0
  4 12  1  1
 13  2  1  0
 14  9  1  0
 15  7  1  0
 16  3  1  0
 17 13  1  0
  8 18  1  1
 19 18  1  0
 20 15  1  0
 21 14  2  0
 22 16  1  0
 23 19  2  0
 24 25  2  0
 25 32  1  0
  1 26  1  1
  2 27  1  6
  3 28  1  1
 11 29  1  6
 30 14  1  0
 31  9  1  0
 32 31  1  0
 20 33  1  6
 15 34  1  6
 35 19  1  0
 36 24  1  0
 37 24  1  0
  8  5  1  0
 11  6  1  0
  3  7  1  0
 22 20  1  0
M  END
>  <ID>  (419) 


>  <MOLENAME>  (419) 
FUSIDIC ACID

>  <therap>  (419) 
antibacterial

>  <ref>  (419) 
Tetrahedron 21: 3505 (1965)

>  <cas#>  (419) 
6990-06-3

>  <source>  (419) 
Fusidium spp; SQ-16603

>  <status>  (419) 
USAN, INN, BAN

>  <tradename>  (419) 
FUCIDINE

>  <SMILES>  (419) 
CC(=O)O[C@H]1C[C@@]2(C)[C@@H](C[C@@H](O)C3[C@@]4(C)CC[C@@H](O)[C@@H](C)[C@@H]4CC[C@@]32C)/C1=C(/CCC=C(C)C)C(=O)O

>  <standardized_failed>  (419) 
False

$$$$

     RDKit          2D

 39 36  0  0  0  0  0  0  0  0999 V2000
    2.4250   -2.1042    0.0000 C   0  0  0  0  0  0  0  0  0  0  0  0
    3.0667    0.5208    0.0000 N   0  0  0  0  0  0  0  0  0  0  0  0
    4.3000   -1.1042    0.0000 N   0  0  0  0  0  0  0  0  0  0  0  0
    3.7250   -5.1042    0.0000 N   0  0  0  0  0  0  0  0  0  0  0  0
    1.7750   -1.7292    0.0000 C   0  0  0  0  0  0  0  0  0  0  0  0
    2.4250   -2.8542    0.0000 C   0  0  0  0  0  0  0  0  0  0  0  0
    3.4875    1.1958    0.0000 I   0  0  0  0  0  0  0  0  0  0  0  0
    4.8000   -0.5542    0.0000 I   0  0  0  0  0  0  0  0  0  0  0  0
    4.2667   -4.5792    0.0000 I   0  0  0  0  0  0  0  0  0  0  0  0
    3.0792   -1.7250    0.0000 O   0  0  0  0  0  0  0  0  0  0  0  0
    1.7750   -0.9792    0.0000 O   0  0  0  0  0  0  0  0  0  0  0  0
    3.0792   -3.2292    0.0000 O   0  0  0  0  0  0  0  0  0  0  0  0
    3.0792   -0.9750    0.0000 C   0  0  0  0  0  0  0  0  0  0  0  0
    2.4167   -0.6042    0.0000 C   0  0  0  0  0  0  0  0  0  0  0  0
    3.0792   -3.9792    0.0000 C   0  0  0  0  0  0  0  0  0  0  0  0
    2.4167    0.1458    0.0000 C   0  0  0  0  0  0  0  0  0  0  0  0
    3.7250   -4.3542    0.0000 C   0  0  0  0  0  0  0  0  0  0  0  0
    3.7250   -0.6000    0.0000 C   0  0  0  0  0  0  0  0  0  0  0  0
    4.4750   -5.1042    0.0000 C   0  0  0  0  0  0  0  0  0  0  0  0
    2.9750   -5.1042    0.0000 C   0  0  0  0  0  0  0  0  0  0  0  0
    3.7250   -5.8542    0.0000 C   0  0  0  0  0  0  0  0  0  0  0  0
    4.3500   -0.3542    0.0000 C   0  0  0  0  0  0  0  0  0  0  0  0
    5.0500   -1.1542    0.0000 C   0  0  0  0  0  0  0  0  0  0  0  0
    3.7167    0.9000    0.0000 C   0  0  0  0  0  0  0  0  0  0  0  0
    2.6875    1.1750    0.0000 C   0  0  0  0  0  0  0  0  0  0  0  0
    3.4417   -0.1292    0.0000 C   0  0  0  0  0  0  0  0  0  0  0  0
    4.2500   -1.8542    0.0000 C   0  0  0  0  0  0  0  0  0  0  0  0
    1.1292   -2.8542    0.0000 C   0  0  0  0  0  0  0  0  0  0  0  0
    1.7750   -3.2292    0.0000 C   0  0  0  0  0  0  0  0  0  0  0  0
    1.1292   -2.1042    0.0000 C   0  0  0  0  0  0  0  0  0  0  0  0
    2.6000   -4.4667    0.0000 C   0  0  0  0  0  0  0  0  0  0  0  0
    3.0667   -0.7792    0.0000 C   0  0  0  0  0  0  0  0  0  0  0  0
    3.0792   -6.2292    0.0000 C   0  0  0  0  0  0  0  0  0  0  0  0
    4.8667   -2.2750    0.0000 C   0  0  0  0  0  0  0  0  0  0  0  0
    3.0625    1.8250    0.0000 C   0  0  0  0  0  0  0  0  0  0  0  0
    3.7292    0.0583    0.0000 C   0  0  0  0  0  0  0  0  0  0  0  0
    4.3667    0.5250    0.0000 C   0  0  0  0  0  0  0  0  0  0  0  0
    4.8500   -5.7542    0.0000 C   0  0  0  0  0  0  0  0  0  0  0  0
    5.4667   -0.5375    0.0000 C   0  0  0  0  0  0  0  0  0  0  0  0
  2 16  1  0
  3 18  1  0
  4 17  1  0
  5  1  2  0
  6  1  1  0
 10  1  1  0
 11  5  1  0
 12  6  1  0
 13 10  1  0
 14 11  1  0
 15 12  1  0
 16 14  1  0
 17 15  1  0
 18 13  1  0
 19  4  1  0
 20  4  1  0
 21  4  1  0
 22  3  1  0
 23  3  1  0
 24  2  1  0
 25  2  1  0
 26  2  1  0
 27  3  1  0
 28 29  1  0
 29  6  2  0
 30  5  1  0
 31 20  1  0
 32 26  1  0
 33 21  1  0
 34 27  1  0
 35 25  1  0
 36 22  1  0
 37 24  1  0
 38 19  1  0
 39 23  1  0
 28 30  2  0
M  CHG  6   2   1   3   1   4   1   7  -1   8  -1   9  -1
M  END
>  <ID>  (420) 


>  <MOLENAME>  (420) 
GALLAMINE TRIETHIODIDE

>  <therap>  (420) 
muscle relaxant (skeletal)

>  <ref>  (420) 
Br. J. Anaesth. (1970), 42(3), 235-48; J. Pharmacol. Exp. Ther. (1950), 100(No. 4;Pt. 1), 489-501; J. Pharmacol. Exp. Ther. (1950), 100, 201-9

>  <cas#>  (420) 
65-29-2, 153-76-4 [gallamine]

>  <source>  (420) 
synthetic

>  <status>  (420) 
USP, INN

>  <tradename>  (420) 
FLAXADIL

>  <SMILES>  (420) 
CC[N+](CC)(CC)CCOc1c(OCC[N+](CC)(CC)CC)c(OCC[N+](CC)(CC)CC)ccc1

>  <standardized_failed>  (420) 
False

$$$$

     RDKit          2D

 18 18  0  0  0  0  0  0  0  0999 V2000
    6.6292   -1.9000    0.0000 C   0  0  0  0  0  0  0  0  0  0  0  0
    2.7292   -1.9000    0.0000 C   0  0  0  0  0  0  0  0  0  0  0  0
    5.9792   -1.5250    0.0000 C   0  0  0  0  0  0  0  0  0  0  0  0
    2.0667   -1.5167    0.0000 C   0  0  0  0  0  0  0  0  0  0  0  0
    2.7292   -2.6542    0.0000 C   0  0  0  0  0  0  0  0  0  0  0  0
    6.6250   -2.6500    0.0000 O   0  0  0  0  0  0  0  0  0  0  0  0
    1.4292   -1.9000    0.0000 C   0  0  0  0  0  0  0  0  0  0  0  0
    7.2792   -1.5292    0.0000 O   0  0  0  0  0  0  0  0  0  0  0  0
    2.0667   -3.0292    0.0000 C   0  0  0  0  0  0  0  0  0  0  0  0
    1.4292   -2.6542    0.0000 C   0  0  0  0  0  0  0  0  0  0  0  0
    3.3792   -1.5250    0.0000 O   0  0  0  0  0  0  0  0  0  0  0  0
    5.3292   -1.9000    0.0000 C   0  0  0  0  0  0  0  0  0  0  0  0
    6.5167   -1.0542    0.0000 C   0  0  0  0  0  0  0  0  0  0  0  0
    5.4792   -1.0542    0.0000 C   0  0  0  0  0  0  0  0  0  0  0  0
    2.0667   -0.7667    0.0000 C   0  0  0  0  0  0  0  0  0  0  0  0
    4.0292   -1.9000    0.0000 C   0  0  0  0  0  0  0  0  0  0  0  0
    2.0667   -3.7792    0.0000 C   0  0  0  0  0  0  0  0  0  0  0  0
    4.6792   -1.5250    0.0000 C   0  0  0  0  0  0  0  0  0  0  0  0
  2 11  1  0
  3  1  1  0
  4  2  2  0
  5  2  1  0
  6  1  2  0
  7  4  1  0
  8  1  1  0
  9  5  2  0
 10  9  1  0
 11 16  1  0
 12  3  1  0
 13  3  1  0
 14  3  1  0
 15  4  1  0
 16 18  1  0
 17  9  1  0
 18 12  1  0
 10  7  2  0
M  END
>  <ID>  (421) 


>  <MOLENAME>  (421) 
GEMFIBROZIL

>  <therap>  (421) 
antihyperlipoproteinemic

>  <ref>  (421) 
Immunopharmacol. Immunotoxicol. (2009), 31(3), 339-351; Proc. R. Soc. Med. (1976), 69(Suppl. 2), 3-5; J. Med. (1980), 11(2-3), 107-16

>  <cas#>  (421) 
25812-30-0

>  <source>  (421) 
synthetic; CI-719

>  <status>  (421) 
USP, INN, BAN

>  <tradename>  (421) 
LOPID

>  <SMILES>  (421) 
Cc1cc(OCCCC(C)(C)C(=O)O)c(C)cc1

>  <standardized_failed>  (421) 
False

$$$$

     RDKit          2D

 38 39  0  0  0  0  0  0  0  0999 V2000
   10.3875   -5.1167    0.0000 S   0  0  0  0  0  0  0  0  0  0  0  0
    7.4792   -5.8042    0.0000 C   0  0  0  0  0  0  0  0  0  0  0  0
    7.4792   -4.5042    0.0000 C   0  0  0  0  0  0  0  0  0  0  0  0
    7.1042   -5.1542    0.0000 C   0  0  0  0  0  0  0  0  0  0  0  0
    5.9750   -7.1042    0.0000 C   0  0  0  0  0  0  0  0  0  0  0  0
    6.3500   -6.4542    0.0000 C   0  0  0  0  0  0  0  0  0  0  0  0
    5.2250   -7.1042    0.0000 C   0  0  0  0  0  0  0  0  0  0  0  0
    6.3542   -3.8542    0.0000 C   0  0  0  0  0  0  0  0  0  0  0  0
    7.1000   -6.4542    0.0000 O   0  0  0  0  0  0  0  0  0  0  0  0
    7.1042   -3.8542    0.0000 O   0  0  0  0  0  0  0  0  0  0  0  0
    5.9875   -3.2042    0.0000 O   0  0  0  0  0  0  0  0  0  0  0  0
    4.8500   -6.4542    0.0000 C   0  0  0  0  0  0  0  0  0  0  0  0
    8.2292   -5.8042    0.0000 C   0  0  0  0  0  0  0  0  0  0  0  0
    8.2292   -4.5042    0.0000 C   0  0  0  0  0  0  0  0  0  0  0  0
    5.9750   -5.8042    0.0000 O   0  0  0  0  0  0  0  0  0  0  0  0
    8.6042   -5.1417    0.0000 C   0  0  0  0  0  0  0  0  0  0  0  0
    5.2292   -3.2042    0.0000 C   0  0  0  0  0  0  0  0  0  0  0  0
   10.3792   -5.8042    0.0000 O   0  0  0  0  0  0  0  0  0  0  0  0
   11.0667   -5.1167    0.0000 O   0  0  0  0  0  0  0  0  0  0  0  0
    5.2250   -5.8042    0.0000 C   0  0  0  0  0  0  0  0  0  0  0  0
    5.9792   -4.5042    0.0000 C   0  0  0  0  0  0  0  0  0  0  0  0
   10.3792   -4.4292    0.0000 O   0  0  0  0  0  0  0  0  0  0  0  0
    9.7042   -5.1167    0.0000 O   0  0  0  0  0  0  0  0  0  0  0  0
    4.8500   -7.7542    0.0000 N   0  0  0  0  0  0  0  0  0  0  0  0
    4.8542   -3.8542    0.0000 C   0  0  0  0  0  0  0  0  0  0  0  0
    5.2292   -4.5042    0.0000 C   0  0  0  0  0  0  0  0  0  0  0  0
    6.3542   -7.7542    0.0000 O   0  0  0  0  0  0  0  0  0  0  0  0
    7.6750   -5.1417    0.0000 O   0  0  0  0  0  0  0  0  0  0  0  0
    8.6042   -6.4542    0.0000 N   0  0  0  0  0  0  0  0  0  0  0  0
    8.6125   -3.8417    0.0000 N   0  0  0  0  0  0  0  0  0  0  0  0
    4.8500   -2.5542    0.0000 C   0  0  0  0  0  0  0  0  0  0  0  0
    4.2375   -5.9042    0.0000 O   0  0  0  0  0  0  0  0  0  0  0  0
    4.1000   -2.5542    0.0000 N   0  0  0  0  0  0  0  0  0  0  0  0
    6.3625   -5.1542    0.0000 N   0  0  0  0  0  0  0  0  0  0  0  0
    4.0500   -6.8667    0.0000 C   0  0  0  0  0  0  0  0  0  0  0  0
    4.1000   -7.7542    0.0000 C   0  0  0  0  0  0  0  0  0  0  0  0
    3.7250   -1.9042    0.0000 C   0  0  0  0  0  0  0  0  0  0  0  0
    5.2250   -1.8917    0.0000 C   0  0  0  0  0  0  0  0  0  0  0  0
  3  4  1  0
  4  2  1  0
  5  6  1  0
  9  6  1  0
  7  5  1  0
  8 10  1  6
  2  9  1  6
 10  3  1  0
 11  8  1  0
 12 20  1  0
 13  2  1  0
 14 16  1  0
 15  6  1  0
 16 13  1  0
 17 11  1  0
 18  1  2  0
 19  1  2  0
 20 15  1  0
 21  8  1  0
 22  1  1  0
 23  1  1  0
  7 24  1  1
 25 26  1  0
 26 21  1  0
  5 27  1  6
  4 28  1  1
 13 29  1  1
 14 30  1  1
 17 31  1  1
 12 32  1  0
 33 31  1  0
 21 34  1  6
 12 35  1  6
 36 24  1  0
 37 33  1  0
 38 31  1  0
  3 14  1  0
  7 12  1  0
 25 17  1  0
M  END
>  <ID>  (422) 


>  <MOLENAME>  (422) 
GENTAMICIN SULFATE

>  <therap>  (422) 
antibacterial

>  <ref>  (422) 
Drug Action Drug Resist. Bact. (1975), 2, 77-111; Antimicrob. Agents Chemother. (1963), 161, 138-47; J. Med. Chem. (1963), 6, 463-4

>  <cas#>  (422) 
1405-41-0, 1403-66-3 [gentamicin]

>  <source>  (422) 
Micromonospora spp; Sch-9724

>  <status>  (422) 
USP, INN, BAN, JAN

>  <tradename>  (422) 
GARAMYCIN

>  <SMILES>  (422) 
CNC(C)[C@@H]1CC[C@@H](N)[C@@H](OC2[C@@H](N)C[C@@H](N)[C@H](OC3OC[C@](C)(O)[C@H](NC)[C@H]3O)[C@H]2O)O1

>  <standardized_failed>  (422) 
False

$$$$

     RDKit          2D

 29 30  0  0  0  0  0  0  0  0999 V2000
    0.9875   -0.3292    0.0000 C   0  0  0  0  0  0  0  0  0  0  0  0
    0.9875    1.9208    0.0000 N   0  0  0  0  0  0  0  0  0  0  0  0
    0.9875   -1.0875    0.0000 C   0  0  0  0  0  0  0  0  0  0  0  0
    0.9875    1.1708    0.0000 C   0  0  0  0  0  0  0  0  0  0  0  0
    1.6375    0.0458    0.0000 C   0  0  0  0  0  0  0  0  0  0  0  0
    0.3417    0.0458    0.0000 C   0  0  0  0  0  0  0  0  0  0  0  0
    1.6375    0.7958    0.0000 C   0  0  0  0  0  0  0  0  0  0  0  0
    0.3417    0.7958    0.0000 C   0  0  0  0  0  0  0  0  0  0  0  0
    1.6375   -1.4542    0.0000 C   0  0  0  0  0  0  0  0  0  0  0  0
    0.3417   -1.4542    0.0000 C   0  0  0  0  0  0  0  0  0  0  0  0
    2.9292   -2.2042    0.0000 C   0  0  0  0  0  0  0  0  0  0  0  0
   -0.9583   -2.2042    0.0000 C   0  0  0  0  0  0  0  0  0  0  0  0
    3.5875   -2.5875    0.0000 N   0  0  0  0  0  0  0  0  0  0  0  0
   -1.6208   -2.5792    0.0000 N   0  0  0  0  0  0  0  0  0  0  0  0
    2.5500    1.8000    0.0000 Cl  0  0  0  0  0  0  0  0  0  0  0  0
    0.3417   -2.2042    0.0000 C   0  0  0  0  0  0  0  0  0  0  0  0
    1.6375   -2.2042    0.0000 C   0  0  0  0  0  0  0  0  0  0  0  0
   -0.3083   -1.0792    0.0000 C   0  0  0  0  0  0  0  0  0  0  0  0
    2.2792   -1.0792    0.0000 C   0  0  0  0  0  0  0  0  0  0  0  0
    2.2792   -2.5792    0.0000 C   0  0  0  0  0  0  0  0  0  0  0  0
   -0.9583   -1.4542    0.0000 C   0  0  0  0  0  0  0  0  0  0  0  0
    2.9292   -1.4542    0.0000 C   0  0  0  0  0  0  0  0  0  0  0  0
   -0.3083   -2.5792    0.0000 C   0  0  0  0  0  0  0  0  0  0  0  0
    1.6292    2.2958    0.0000 C   0  0  0  0  0  0  0  0  0  0  0  0
    0.3375    2.2958    0.0000 C   0  0  0  0  0  0  0  0  0  0  0  0
   -1.6208   -3.3375    0.0000 C   0  0  0  0  0  0  0  0  0  0  0  0
    3.5875   -3.3375    0.0000 C   0  0  0  0  0  0  0  0  0  0  0  0
    4.2292   -2.2125    0.0000 C   0  0  0  0  0  0  0  0  0  0  0  0
   -2.2708   -2.2042    0.0000 C   0  0  0  0  0  0  0  0  0  0  0  0
  2  4  2  0
  3  1  2  0
  4  8  1  0
  5  1  1  0
  6  1  1  0
  7  5  2  0
  8  6  2  0
  9  3  1  0
 10  3  1  0
 11 20  2  0
 12 21  2  0
 13 11  1  0
 14 12  1  0
 16 10  1  0
 17  9  2  0
 18 10  2  0
 19  9  1  0
 20 17  1  0
 21 18  1  0
 22 19  2  0
 23 16  2  0
 24  2  1  0
 25  2  1  0
 26 14  1  0
 27 13  1  0
 28 13  1  0
 29 14  1  0
  4  7  1  0
 23 12  1  0
 11 22  1  0
M  CHG  2   2   1  15  -1
M  END
>  <ID>  (423) 


>  <MOLENAME>  (423) 
GENTIAN VIOLET

>  <therap>  (423) 
antibacterial, anthelmintic

>  <ref>  (423) 
Dermatol. Clin. (2011), 29, 69-73; Drug Metab. Rev. (1990), 22(2-3), 161-78; Arch. Exp. Pathol. Pharmakol. (1934), 177, 103-12

>  <cas#>  (423) 
548-62-9

>  <source>  (423) 
synthetic

>  <status>  (423) 
USP, INN, BAN, JAN

>  <tradename>  (423) 
GVS

>  <SMILES>  (423) 
CN(C)c1ccc(C(=C2C=CC(=[N+](C)C)C=C2)c2ccc(N(C)C)cc2)cc1

>  <standardized_failed>  (423) 
False

$$$$

     RDKit          2D

 13 12  0  0  0  0  0  0  0  0999 V2000
    6.4667   -3.9542    0.0000 C   0  0  0  0  0  0  0  0  0  0  0  0
    5.7542   -4.3667    0.0000 C   0  0  0  0  0  0  0  0  0  0  0  0
    5.7542   -2.7167    0.0000 O   0  0  0  0  0  0  0  0  0  0  0  0
    6.4667   -3.1292    0.0000 C   0  0  0  0  0  0  0  0  0  0  0  0
    5.0375   -3.9542    0.0000 C   0  0  0  0  0  0  0  0  0  0  0  0
    5.0375   -3.1292    0.0000 C   0  0  0  0  0  0  0  0  0  0  0  0
    7.1875   -4.3667    0.0000 N   0  0  0  0  0  0  0  0  0  0  0  0
    5.7542   -5.1917    0.0000 O   0  0  0  0  0  0  0  0  0  0  0  0
    4.3167   -4.3667    0.0000 O   0  0  0  0  0  0  0  0  0  0  0  0
    7.1875   -2.7042    0.0000 O   0  0  0  0  0  0  0  0  0  0  0  0
    4.3167   -2.7125    0.0000 C   0  0  0  0  0  0  0  0  0  0  0  0
    8.5125   -3.6167    0.0000 Cl  0  0  0  0  0  0  0  0  0  0  0  0
    4.3167   -1.8792    0.0000 O   0  0  0  0  0  0  0  0  0  0  0  0
  2  1  1  0
  3  4  1  0
  4  1  1  0
  5  2  1  0
  6  3  1  0
  1  7  1  6
  2  8  1  1
  5  9  1  6
  4 10  1  1
  6 11  1  1
 13 11  1  0
  5  6  1  0
M  END
>  <ID>  (424) 


>  <MOLENAME>  (424) 
GLUCOSAMINE HYDROCHLORIDE

>  <therap>  (424) 
antiarthritic

>  <ref>  (424) 
Adv Carbohydr Chem 15:159 (1960); Methods Carbohydr Chem 1:228 (1962)

>  <cas#>  (424) 
3416-24-8

>  <source>  (424) 
polysaccharides in bacteria, fungi, higher plants, invertebrates, vertebrates

>  <status>  (424) 
USAN, NF-XXI

>  <tradename>  (424) 
nan

>  <SMILES>  (424) 
N[C@H]1[C@H](O)O[C@H](CO)[C@@H](O)[C@@H]1O

>  <standardized_failed>  (424) 
False

$$$$

     RDKit          2D

136143  0  0  0  0  0  0  0  0999 V2000
    7.1875   -6.0333    0.0000 C   0  0  0  0  0  0  0  0  0  0  0  0
    5.3333   -4.8708    0.0000 C   0  0  0  0  0  0  0  0  0  0  0  0
    3.4042   -5.8917    0.0000 C   0  0  0  0  0  0  0  0  0  0  0  0
    4.5208   -4.9958    0.0000 N   0  0  0  0  0  0  0  0  0  0  0  0
    6.6708   -5.3917    0.0000 N   0  0  0  0  0  0  0  0  0  0  0  0
    5.4708  -14.3292    0.0000 C   0  0  0  0  0  0  0  0  0  0  0  0
    9.8917  -15.5125    0.0000 C   0  0  0  0  0  0  0  0  0  0  0  0
    1.5500   -7.2125    0.0000 C   0  0  0  0  0  0  0  0  0  0  0  0
    2.2167  -11.0500    0.0000 C   0  0  0  0  0  0  0  0  0  0  0  0
    8.3042   -5.1375    0.0000 N   0  0  0  0  0  0  0  0  0  0  0  0
    9.1208   -5.0125    0.0000 C   0  0  0  0  0  0  0  0  0  0  0  0
    7.4542  -13.6167    0.0000 C   0  0  0  0  0  0  0  0  0  0  0  0
    4.2542  -11.5875    0.0000 C   0  0  0  0  0  0  0  0  0  0  0  0
    3.5875   -7.7500    0.0000 C   0  0  0  0  0  0  0  0  0  0  0  0
    4.1417   -9.8625    0.0000 C   0  0  0  0  0  0  0  0  0  0  0  0
    6.3875  -12.2625    0.0000 C   0  0  0  0  0  0  0  0  0  0  0  0
    9.6583  -13.2625    0.0000 C   0  0  0  0  0  0  0  0  0  0  0  0
    9.1625   -2.8875    0.0000 C   0  0  0  0  0  0  0  0  0  0  0  0
    7.2250   -1.8833    0.0000 C   0  0  0  0  0  0  0  0  0  0  0  0
    2.8833   -6.5167    0.0000 N   0  0  0  0  0  0  0  0  0  0  0  0
    8.5625  -15.6417    0.0000 N   0  0  0  0  0  0  0  0  0  0  0  0
    4.2500  -13.7833    0.0000 N   0  0  0  0  0  0  0  0  0  0  0  0
    0.8542   -6.0750    0.0000 N   0  0  0  0  0  0  0  0  0  0  0  0
    1.5208   -9.9125    0.0000 N   0  0  0  0  0  0  0  0  0  0  0  0
    5.8542   -5.5167    0.0000 C   0  0  0  0  0  0  0  0  0  0  0  0
    3.5500  -10.3542    0.0000 N   0  0  0  0  0  0  0  0  0  0  0  0
    6.1750  -13.0000    0.0000 N   0  0  0  0  0  0  0  0  0  0  0  0
    8.0042   -5.9083    0.0000 C   0  0  0  0  0  0  0  0  0  0  0  0
    5.1500  -11.5458    0.0000 N   0  0  0  0  0  0  0  0  0  0  0  0
    8.2292  -13.2542    0.0000 N   0  0  0  0  0  0  0  0  0  0  0  0
    3.5250   -8.5750    0.0000 N   0  0  0  0  0  0  0  0  0  0  0  0
    4.2208   -5.7667    0.0000 C   0  0  0  0  0  0  0  0  0  0  0  0
    9.8417  -14.0083    0.0000 N   0  0  0  0  0  0  0  0  0  0  0  0
    7.7917   -2.4833    0.0000 N   0  0  0  0  0  0  0  0  0  0  0  0
    9.1833  -15.1000    0.0000 C   0  0  0  0  0  0  0  0  0  0  0  0
    1.6083   -6.4000    0.0000 C   0  0  0  0  0  0  0  0  0  0  0  0
    2.2750  -10.2375    0.0000 C   0  0  0  0  0  0  0  0  0  0  0  0
    5.0583  -13.6250    0.0000 C   0  0  0  0  0  0  0  0  0  0  0  0
    8.9333   -3.6792    0.0000 N   0  0  0  0  0  0  0  0  0  0  0  0
    2.8833   -7.3375    0.0000 C   0  0  0  0  0  0  0  0  0  0  0  0
    6.6417  -13.6792    0.0000 C   0  0  0  0  0  0  0  0  0  0  0  0
    3.5500  -11.1750    0.0000 C   0  0  0  0  0  0  0  0  0  0  0  0
   10.5833  -14.3667    0.0000 C   0  0  0  0  0  0  0  0  0  0  0  0
    4.2042   -9.0417    0.0000 C   0  0  0  0  0  0  0  0  0  0  0  0
    8.9458  -12.8417    0.0000 C   0  0  0  0  0  0  0  0  0  0  0  0
    8.5958   -2.2875    0.0000 C   0  0  0  0  0  0  0  0  0  0  0  0
    5.9750  -11.5458    0.0000 C   0  0  0  0  0  0  0  0  0  0  0  0
    4.7500    0.7000    0.0000 C   0  0  0  0  0  0  0  0  0  0  0  0
   11.2583  -13.9083    0.0000 C   0  0  0  0  0  0  0  0  0  0  0  0
    0.7500   -7.4000    0.0000 C   0  0  0  0  0  0  0  0  0  0  0  0
    1.4167  -11.2375    0.0000 C   0  0  0  0  0  0  0  0  0  0  0  0
    9.7125  -16.3125    0.0000 C   0  0  0  0  0  0  0  0  0  0  0  0
    4.9125  -14.9375    0.0000 C   0  0  0  0  0  0  0  0  0  0  0  0
    2.8333  -11.5875    0.0000 C   0  0  0  0  0  0  0  0  0  0  0  0
    6.2833  -14.4208    0.0000 C   0  0  0  0  0  0  0  0  0  0  0  0
    2.1667   -7.7500    0.0000 C   0  0  0  0  0  0  0  0  0  0  0  0
   10.6417  -15.1875    0.0000 C   0  0  0  0  0  0  0  0  0  0  0  0
    6.7708   -0.6208    0.0000 N   0  0  0  0  0  0  0  0  0  0  0  0
    6.8333    0.2000    0.0000 C   0  0  0  0  0  0  0  0  0  0  0  0
    9.4917   -4.2667    0.0000 C   0  0  0  0  0  0  0  0  0  0  0  0
    5.4667    0.2875    0.0000 N   0  0  0  0  0  0  0  0  0  0  0  0
    8.8833  -16.3792    0.0000 C   0  0  0  0  0  0  0  0  0  0  0  0
    4.1625  -14.5833    0.0000 C   0  0  0  0  0  0  0  0  0  0  0  0
    0.9958  -10.5208    0.0000 C   0  0  0  0  0  0  0  0  0  0  0  0
    0.3292   -6.6833    0.0000 C   0  0  0  0  0  0  0  0  0  0  0  0
    7.4333   -1.0042    0.0000 C   0  0  0  0  0  0  0  0  0  0  0  0
    4.0292    0.2833    0.0000 C   0  0  0  0  0  0  0  0  0  0  0  0
    5.6208   -4.1208    0.0000 O   0  0  0  0  0  0  0  0  0  0  0  0
    6.8875   -6.8000    0.0000 O   0  0  0  0  0  0  0  0  0  0  0  0
    2.9375   -5.0875    0.0000 O   0  0  0  0  0  0  0  0  0  0  0  0
    3.3125   -0.9542    0.0000 C   0  0  0  0  0  0  0  0  0  0  0  0
    9.6958   -5.6042    0.0000 O   0  0  0  0  0  0  0  0  0  0  0  0
    9.9625   -2.6958    0.0000 O   0  0  0  0  0  0  0  0  0  0  0  0
    4.8167  -10.3292    0.0000 O   0  0  0  0  0  0  0  0  0  0  0  0
    7.6833  -14.4583    0.0000 O   0  0  0  0  0  0  0  0  0  0  0  0
    4.2458   -7.4917    0.0000 O   0  0  0  0  0  0  0  0  0  0  0  0
   10.3708  -12.8542    0.0000 O   0  0  0  0  0  0  0  0  0  0  0  0
    7.2083  -12.2625    0.0000 O   0  0  0  0  0  0  0  0  0  0  0  0
    3.9667  -12.3333    0.0000 O   0  0  0  0  0  0  0  0  0  0  0  0
    6.4042   -2.0583    0.0000 O   0  0  0  0  0  0  0  0  0  0  0  0
    4.7500    1.5208    0.0000 O   0  0  0  0  0  0  0  0  0  0  0  0
   11.9917  -14.2625    0.0000 O   0  0  0  0  0  0  0  0  0  0  0  0
    8.8250   -1.4958    0.0000 C   0  0  0  0  0  0  0  0  0  0  0  0
    8.9458  -12.0167    0.0000 C   0  0  0  0  0  0  0  0  0  0  0  0
    4.9500   -8.6833    0.0000 C   0  0  0  0  0  0  0  0  0  0  0  0
    6.3875  -10.8292    0.0000 C   0  0  0  0  0  0  0  0  0  0  0  0
    7.5250    0.6125    0.0000 O   0  0  0  0  0  0  0  0  0  0  0  0
    4.0292   -0.5417    0.0000 N   0  0  0  0  0  0  0  0  0  0  0  0
    3.3125   -1.7792    0.0000 O   0  0  0  0  0  0  0  0  0  0  0  0
    6.2125    0.7167    0.0000 C   0  0  0  0  0  0  0  0  0  0  0  0
   11.2542  -13.0792    0.0000 N   0  0  0  0  0  0  0  0  0  0  0  0
    4.4000   -6.4958    0.0000 C   0  0  0  0  0  0  0  0  0  0  0  0
    5.5542   -6.2875    0.0000 C   0  0  0  0  0  0  0  0  0  0  0  0
    8.5208   -6.5500    0.0000 C   0  0  0  0  0  0  0  0  0  0  0  0
    3.3125    0.7000    0.0000 C   0  0  0  0  0  0  0  0  0  0  0  0
   13.3917  -12.6500    0.0000 O   0  0  0  0  0  0  0  0  0  0  0  0
    4.9958  -15.7667    0.0000 C   0  0  0  0  0  0  0  0  0  0  0  0
   10.1917  -16.9917    0.0000 C   0  0  0  0  0  0  0  0  0  0  0  0
    0.3458   -8.1292    0.0000 C   0  0  0  0  0  0  0  0  0  0  0  0
    1.0125  -11.9667    0.0000 C   0  0  0  0  0  0  0  0  0  0  0  0
    7.0958  -10.6792    0.0000 C   0  0  0  0  0  0  0  0  0  0  0  0
    9.6208   -1.2792    0.0000 C   0  0  0  0  0  0  0  0  0  0  0  0
    5.6208   -8.9625    0.0000 C   0  0  0  0  0  0  0  0  0  0  0  0
    9.4917  -11.5333    0.0000 C   0  0  0  0  0  0  0  0  0  0  0  0
   10.3083   -4.1208    0.0000 C   0  0  0  0  0  0  0  0  0  0  0  0
    8.2042   -0.7708    0.0000 C   0  0  0  0  0  0  0  0  0  0  0  0
    3.4792  -15.0583    0.0000 C   0  0  0  0  0  0  0  0  0  0  0  0
    8.5292  -17.1333    0.0000 C   0  0  0  0  0  0  0  0  0  0  0  0
    0.1625  -10.5292    0.0000 C   0  0  0  0  0  0  0  0  0  0  0  0
   -0.5042   -6.6917    0.0000 C   0  0  0  0  0  0  0  0  0  0  0  0
   11.9625  -12.6625    0.0000 C   0  0  0  0  0  0  0  0  0  0  0  0
   12.6792  -13.0667    0.0000 C   0  0  0  0  0  0  0  0  0  0  0  0
    9.3375   -6.4208    0.0000 C   0  0  0  0  0  0  0  0  0  0  0  0
    3.8708   -7.0875    0.0000 C   0  0  0  0  0  0  0  0  0  0  0  0
    5.0292   -6.9333    0.0000 C   0  0  0  0  0  0  0  0  0  0  0  0
    8.2250   -7.3167    0.0000 C   0  0  0  0  0  0  0  0  0  0  0  0
    4.7292   -6.2875    0.0000 C   0  0  0  0  0  0  0  0  0  0  0  0
    6.0208   -6.9667    0.0000 C   0  0  0  0  0  0  0  0  0  0  0  0
    3.3083    1.5208    0.0000 C   0  0  0  0  0  0  0  0  0  0  0  0
    2.5958    0.2833    0.0000 C   0  0  0  0  0  0  0  0  0  0  0  0
   10.2375  -11.9292    0.0000 C   0  0  0  0  0  0  0  0  0  0  0  0
   10.3292   -1.6917    0.0000 C   0  0  0  0  0  0  0  0  0  0  0  0
    7.5042  -10.0583    0.0000 C   0  0  0  0  0  0  0  0  0  0  0  0
    7.5500  -11.3917    0.0000 C   0  0  0  0  0  0  0  0  0  0  0  0
    6.3083   -8.6792    0.0000 C   0  0  0  0  0  0  0  0  0  0  0  0
    5.5917   -9.8042    0.0000 C   0  0  0  0  0  0  0  0  0  0  0  0
    9.5333  -10.7917    0.0000 C   0  0  0  0  0  0  0  0  0  0  0  0
    9.8375   -0.3125    0.0000 C   0  0  0  0  0  0  0  0  0  0  0  0
    0.1750  -11.9750    0.0000 C   0  0  0  0  0  0  0  0  0  0  0  0
   -0.4917   -8.1375    0.0000 C   0  0  0  0  0  0  0  0  0  0  0  0
    9.8375  -17.7500    0.0000 C   0  0  0  0  0  0  0  0  0  0  0  0
    4.3083  -16.2458    0.0000 C   0  0  0  0  0  0  0  0  0  0  0  0
    3.5500  -15.8958    0.0000 C   0  0  0  0  0  0  0  0  0  0  0  0
    9.0042  -17.8208    0.0000 C   0  0  0  0  0  0  0  0  0  0  0  0
   -0.9167   -7.4208    0.0000 C   0  0  0  0  0  0  0  0  0  0  0  0
   -0.2500  -11.2583    0.0000 C   0  0  0  0  0  0  0  0  0  0  0  0
  2 25  1  0
  3 32  1  0
  4  2  1  0
  5  1  1  0
  6 55  1  0
  7 57  1  0
  8 56  1  0
  9 54  1  0
 10 28  1  0
 11 10  1  0
 12 41  1  0
 13 42  1  0
 14 40  1  0
 15 44  1  0
 16 47  1  0
 17 45  1  0
 18 39  1  0
 19 34  1  0
 20  3  1  0
 21 35  1  0
 22 38  1  0
 23 36  1  0
 24 37  1  0
 25  5  1  0
 26 15  1  0
 27 16  1  0
 28  1  1  0
 29 13  1  0
 30 12  1  0
 31 14  1  0
 32  4  1  0
 33 17  1  0
 34 46  1  0
 35  7  2  0
 36  8  2  0
 37  9  2  0
 38  6  2  0
 39 60  1  0
 40 20  1  0
 41 27  1  0
 42 26  1  0
 43 33  1  0
 44 31  1  0
 45 30  1  0
 46 18  1  0
 47 29  1  0
 48 61  1  0
 49 43  1  0
 50  8  1  0
 51  9  1  0
 52  7  1  0
 53  6  1  0
 54 42  1  0
 55 41  1  0
 56 40  1  0
 57 43  1  0
 58 66  1  0
 59 58  1  0
 60 11  1  0
 61 90  1  0
 62 52  2  0
 63 53  2  0
 64 51  2  0
 65 50  2  0
 66 19  1  0
 67 48  1  0
 68  2  2  0
 69  1  2  0
 70  3  2  0
 71 88  1  0
 72 11  2  0
 73 18  2  0
 74 15  2  0
 75 12  2  0
 76 14  2  0
 77 17  2  0
 78 16  2  0
 79 13  2  0
 80 19  2  0
 81 48  2  0
 82 49  2  0
 83 46  1  0
 84 45  1  0
 85 44  1  0
 86 47  1  0
 87 59  2  0
 88 67  1  0
 89 71  2  0
 90 59  1  0
 91 49  1  0
 92 32  1  0
 93 25  1  0
 94 28  1  0
 95 67  1  0
 96112  1  0
 97 53  1  0
 98 52  1  0
 99 50  1  0
100 51  1  0
101 86  1  0
102 83  1  0
103 85  1  0
104 84  1  0
105 60  1  0
106 66  1  0
107 63  1  0
108 62  1  0
109 64  1  0
110 65  1  0
111 91  1  0
112111  1  0
113 94  1  0
114 92  1  0
115 92  1  0
116 94  1  0
117 93  1  0
118 93  1  0
119 95  1  0
120 95  1  0
121104  1  0
122102  1  0
123101  1  0
124101  1  0
125103  1  0
126103  1  0
127104  1  0
128102  1  0
129100  2  0
130 99  2  0
131 98  2  0
132 97  2  0
133132  1  0
134131  1  0
135130  1  0
136129  1  0
 23 65  1  0
135110  2  0
 24 64  1  0
136109  2  0
 22 63  1  0
133107  2  0
 21 62  1  0
134108  2  0
M  END
>  <ID>  (425) 


>  <MOLENAME>  (425) 
GRAMICIDIN (gramicidin A shown)

>  <therap>  (425) 
antibacterial

>  <ref>  (425) 
Biopolymers (1996), 40(1), 141-55; Bacteriol. Rev. (1977), 41(2), 449-74; J. Biol. Chem. (1941), 141, 171-85

>  <cas#>  (425) 
1405-97-6

>  <source>  (425) 
Gramicidin A (87%), B (7%), C (5%) and D (1%) ex Bacillus brevis

>  <status>  (425) 
USP

>  <tradename>  (425) 
nan

>  <SMILES>  (425) 
CC(C)CC(NC(=O)C(C)NC(=O)CNC(=O)C(NC=O)C(C)C)C(=O)NC(C)C(=O)NC(C(=O)NC(C(=O)NC(C(=O)NC(Cc1c[nH]c2c1cccc2)C(=O)NC(CC(C)C)C(=O)NC(Cc1c[nH]c2c1cccc2)C(=O)NC(CC(C)C)C(=O)NC(Cc1c[nH]c2c1cccc2)C(=O)NC(CC(C)C)C(=O)NC(Cc1c[nH]c2c1cccc2)C(=O)NCCO)C(C)C)C(C)C)C(C)C

>  <standardized_failed>  (425) 
False

$$$$

     RDKit          2D

 14 14  0  0  0  0  0  0  0  0999 V2000
    2.9792   -0.7042    0.0000 O   0  0  0  0  0  0  0  0  0  0  0  0
    2.9792   -1.4542    0.0000 C   0  0  0  0  0  0  0  0  0  0  0  0
    3.6292   -1.8375    0.0000 C   0  0  0  0  0  0  0  0  0  0  0  0
    3.6292   -0.3292    0.0000 C   0  0  0  0  0  0  0  0  0  0  0  0
    4.2792   -0.7042    0.0000 C   0  0  0  0  0  0  0  0  0  0  0  0
    4.2792   -1.4625    0.0000 O   0  0  0  0  0  0  0  0  0  0  0  0
    4.2792   -0.0542    0.0000 O   0  0  0  0  0  0  0  0  0  0  0  0
    5.5792   -0.7042    0.0000 O   0  0  0  0  0  0  0  0  0  0  0  0
    4.9292   -0.3292    0.0000 C   0  0  0  0  0  0  0  0  0  0  0  0
    2.3292   -1.8375    0.0000 C   0  0  0  0  0  0  0  0  0  0  0  0
    3.6292   -2.5917    0.0000 C   0  0  0  0  0  0  0  0  0  0  0  0
    4.9292   -1.8375    0.0000 C   0  0  0  0  0  0  0  0  0  0  0  0
    2.9792   -2.9667    0.0000 C   0  0  0  0  0  0  0  0  0  0  0  0
    2.3292   -2.5917    0.0000 C   0  0  0  0  0  0  0  0  0  0  0  0
  2  1  1  0
  3  2  2  0
  4  1  1  0
  5  4  1  0
  6  3  1  0
  7  5  1  0
  8  9  1  0
  9  5  1  0
 10  2  1  0
 11  3  1  0
 12  6  1  0
 13 14  1  0
 14 10  2  0
 13 11  2  0
M  END
>  <ID>  (426) 


>  <MOLENAME>  (426) 
GUAIFENESIN

>  <therap>  (426) 
expectorant

>  <ref>  (426) 
Curr. Allergy Asthma Rep. (2009), 9(2), 101-106; Appl. Thera. (1967), 9(1), 55-9; J. Allergy (1962), 33, 479-84

>  <cas#>  (426) 
93-14-1

>  <source>  (426) 
synthetic

>  <status>  (426) 
USP, INN, BAN, JAN

>  <tradename>  (426) 
MUCINEX

>  <SMILES>  (426) 
COc1c(OCC(O)CO)cccc1

>  <standardized_failed>  (426) 
False

$$$$

     RDKit          2D

 18 17  0  0  0  0  0  0  0  0999 V2000
    5.6417   -5.1000    0.0000 C   0  0  0  0  0  0  0  0  0  0  0  0
    7.5917   -3.9667    0.0000 C   0  0  0  0  0  0  0  0  0  0  0  0
    6.2917   -3.9667    0.0000 N   0  0  0  0  0  0  0  0  0  0  0  0
    7.5917   -3.2167    0.0000 N   0  0  0  0  0  0  0  0  0  0  0  0
    5.0000   -5.4792    0.0000 C   0  0  0  0  0  0  0  0  0  0  0  0
    6.3000   -5.4792    0.0000 C   0  0  0  0  0  0  0  0  0  0  0  0
    9.5500   -5.1417    0.0000 C   0  0  0  0  0  0  0  0  0  0  0  0
    6.9417   -4.3417    0.0000 N   0  0  0  0  0  0  0  0  0  0  0  0
    5.6417   -4.3500    0.0000 C   0  0  0  0  0  0  0  0  0  0  0  0
    9.5500   -4.4667    0.0000 O   0  0  0  0  0  0  0  0  0  0  0  0
    8.2417   -4.3417    0.0000 N   0  0  0  0  0  0  0  0  0  0  0  0
    4.3417   -5.1042    0.0000 Cl  0  0  0  0  0  0  0  0  0  0  0  0
    6.9500   -5.1042    0.0000 Cl  0  0  0  0  0  0  0  0  0  0  0  0
    8.9667   -5.4792    0.0000 O   0  0  0  0  0  0  0  0  0  0  0  0
    5.6417   -6.6042    0.0000 C   0  0  0  0  0  0  0  0  0  0  0  0
    5.0000   -6.2292    0.0000 C   0  0  0  0  0  0  0  0  0  0  0  0
    6.3000   -6.2292    0.0000 C   0  0  0  0  0  0  0  0  0  0  0  0
   10.1375   -5.4792    0.0000 C   0  0  0  0  0  0  0  0  0  0  0  0
  2  8  1  0
  3  9  2  0
  4  2  2  0
  5  1  2  0
  6  1  1  0
  8  3  1  0
  9  1  1  0
 10  7  2  0
 11  2  1  0
 12  5  1  0
 13  6  1  0
 14  7  1  0
 15 17  1  0
 16  5  1  0
 17  6  2  0
 18  7  1  0
 16 15  2  0
M  END
>  <ID>  (427) 


>  <MOLENAME>  (427) 
GUANABENZ ACETATE

>  <therap>  (427) 
antihypertensive

>  <ref>  (427) 
J. Cardiovasc. Pharmacol. (1987), 10(Suppl. 12), S100-S103; Drugs (1983), 26(3), 212-29; Clin. Pharmacol. Ther. (1976), 19(6), 732-7

>  <cas#>  (427) 
23256-50-0

>  <source>  (427) 
synthetic; WY-8678

>  <status>  (427) 
USP, JAN

>  <tradename>  (427) 
WYTENSIN

>  <SMILES>  (427) 
N=C(N)N/N=C\c1c(Cl)cccc1Cl

>  <standardized_failed>  (427) 
False

$$$$

     RDKit          2D

 19 18  0  0  0  0  0  0  0  0999 V2000
   11.0042   -4.7167    0.0000 S   0  0  0  0  0  0  0  0  0  0  0  0
    8.1417   -4.4917    0.0000 C   0  0  0  0  0  0  0  0  0  0  0  0
   11.0042   -3.9667    0.0000 O   0  0  0  0  0  0  0  0  0  0  0  0
   11.7125   -4.7167    0.0000 O   0  0  0  0  0  0  0  0  0  0  0  0
    5.3667   -4.5292    0.0000 N   0  0  0  0  0  0  0  0  0  0  0  0
    8.7792   -4.1000    0.0000 N   0  0  0  0  0  0  0  0  0  0  0  0
   10.4125   -4.7167    0.0000 O   0  0  0  0  0  0  0  0  0  0  0  0
   11.0042   -5.4625    0.0000 O   0  0  0  0  0  0  0  0  0  0  0  0
    7.4542   -4.1250    0.0000 N   0  0  0  0  0  0  0  0  0  0  0  0
    8.1375   -5.2167    0.0000 N   0  0  0  0  0  0  0  0  0  0  0  0
    6.7417   -4.5292    0.0000 C   0  0  0  0  0  0  0  0  0  0  0  0
    6.1417   -4.1875    0.0000 C   0  0  0  0  0  0  0  0  0  0  0  0
    5.3667   -5.2792    0.0000 C   0  0  0  0  0  0  0  0  0  0  0  0
    4.8292   -4.0000    0.0000 C   0  0  0  0  0  0  0  0  0  0  0  0
    4.8292   -5.8042    0.0000 C   0  0  0  0  0  0  0  0  0  0  0  0
    4.0792   -4.0000    0.0000 C   0  0  0  0  0  0  0  0  0  0  0  0
    3.5542   -4.5292    0.0000 C   0  0  0  0  0  0  0  0  0  0  0  0
    4.0792   -5.8042    0.0000 C   0  0  0  0  0  0  0  0  0  0  0  0
    3.5542   -5.2792    0.0000 C   0  0  0  0  0  0  0  0  0  0  0  0
  3  1  2  0
  4  1  2  0
  5 12  1  0
  6  2  2  0
  7  1  1  0
  8  1  1  0
  9  2  1  0
 10  2  1  0
 11  9  1  0
 12 11  1  0
 13  5  1  0
 14  5  1  0
 15 13  1  0
 16 14  1  0
 17 16  1  0
 18 15  1  0
 19 17  1  0
 18 19  1  0
M  END
>  <ID>  (428) 


>  <MOLENAME>  (428) 
GUANETHIDINE MONOSULFATE

>  <therap>  (428) 
antihypertensive, mitotic agent

>  <ref>  (428) 
Br. J. Pharmacol. (1974), 51(2), 237-47; Br. J. Pharmacol. Chemother. (1967), 30(1), 155-65; Br. J. Pharmacol. Chemother. (1963), 20, 362-77

>  <cas#>  (428) 
645-43-2, 55-65-2 [guanethidine]

>  <source>  (428) 
synthetic

>  <status>  (428) 
USP, INN, BAN

>  <tradename>  (428) 
ISMELIN

>  <SMILES>  (428) 
N=C(N)NCCN1CCCCCCC1

>  <standardized_failed>  (428) 
False

$$$$

     RDKit          2D

 15 15  0  0  0  0  0  0  0  0999 V2000
    2.6917   -1.2042    0.0000 S   0  0  0  0  0  0  0  0  0  0  0  0
    2.6917   -0.2125    0.0000 N   0  0  0  0  0  0  0  0  0  0  0  0
    2.6917   -1.9542    0.0000 C   0  0  0  0  0  0  0  0  0  0  0  0
    2.6917   -4.2167    0.0000 C   0  0  0  0  0  0  0  0  0  0  0  0
    3.3417   -0.8292    0.0000 O   0  0  0  0  0  0  0  0  0  0  0  0
    2.0417   -0.8292    0.0000 O   0  0  0  0  0  0  0  0  0  0  0  0
    2.6917   -3.4667    0.0000 C   0  0  0  0  0  0  0  0  0  0  0  0
    2.0417   -4.5875    0.0000 O   0  0  0  0  0  0  0  0  0  0  0  0
    3.3500   -2.3375    0.0000 C   0  0  0  0  0  0  0  0  0  0  0  0
    2.0500   -2.3375    0.0000 C   0  0  0  0  0  0  0  0  0  0  0  0
    3.3417    0.1708    0.0000 Cl  0  0  0  0  0  0  0  0  0  0  0  0
    2.0417    0.1625    0.0000 Cl  0  0  0  0  0  0  0  0  0  0  0  0
    2.0500   -3.0917    0.0000 C   0  0  0  0  0  0  0  0  0  0  0  0
    3.3500   -3.0917    0.0000 C   0  0  0  0  0  0  0  0  0  0  0  0
    3.3417   -4.5917    0.0000 O   0  0  0  0  0  0  0  0  0  0  0  0
  2  1  1  0
  3  1  1  0
  4  7  1  0
  5  1  2  0
  6  1  2  0
  7 13  1  0
  8  4  2  0
  9  3  2  0
 10  3  1  0
 11  2  1  0
 12  2  1  0
 13 10  2  0
 14  9  1  0
 15  4  1  0
  7 14  2  0
M  END
>  <ID>  (429) 


>  <MOLENAME>  (429) 
HALAZONE

>  <therap>  (429) 
antiinfectant

>  <ref>  (429) 
J. Hyg. (1972), 70(2), 313-23; Pflugers Arch. (1987), 409(3), 251-7

>  <cas#>  (429) 
80-13-7

>  <source>  (429) 
synthetic

>  <status>  (429) 
USP, INN

>  <tradename>  (429) 
nan

>  <SMILES>  (429) 
O=C(O)c1ccc(S(=O)(=O)N(Cl)Cl)cc1

>  <standardized_failed>  (429) 
False

$$$$

     RDKit          2D

 26 28  0  0  0  0  0  0  0  0999 V2000
    3.3917   -6.8167    0.0000 C   0  0  0  0  0  0  0  0  0  0  0  0
    5.0417   -6.8167    0.0000 N   0  0  0  0  0  0  0  0  0  0  0  0
    3.8042   -7.5375    0.0000 C   0  0  0  0  0  0  0  0  0  0  0  0
    3.8042   -6.1042    0.0000 C   0  0  0  0  0  0  0  0  0  0  0  0
    2.5625   -6.8167    0.0000 C   0  0  0  0  0  0  0  0  0  0  0  0
    7.5250   -8.2417    0.0000 C   0  0  0  0  0  0  0  0  0  0  0  0
    8.3542   -8.2417    0.0000 C   0  0  0  0  0  0  0  0  0  0  0  0
    7.1125   -8.9625    0.0000 O   0  0  0  0  0  0  0  0  0  0  0  0
    4.6292   -7.5375    0.0000 C   0  0  0  0  0  0  0  0  0  0  0  0
    4.6292   -6.1042    0.0000 C   0  0  0  0  0  0  0  0  0  0  0  0
    2.1500   -6.1042    0.0000 C   0  0  0  0  0  0  0  0  0  0  0  0
    2.1500   -7.5292    0.0000 C   0  0  0  0  0  0  0  0  0  0  0  0
    8.7667   -8.9625    0.0000 C   0  0  0  0  0  0  0  0  0  0  0  0
    8.7667   -7.5292    0.0000 C   0  0  0  0  0  0  0  0  0  0  0  0
    2.9792   -6.1042    0.0000 O   0  0  0  0  0  0  0  0  0  0  0  0
   10.0042   -8.2417    0.0000 C   0  0  0  0  0  0  0  0  0  0  0  0
    0.9042   -6.8167    0.0000 C   0  0  0  0  0  0  0  0  0  0  0  0
    9.5917   -8.9625    0.0000 C   0  0  0  0  0  0  0  0  0  0  0  0
    1.3167   -6.1042    0.0000 C   0  0  0  0  0  0  0  0  0  0  0  0
    9.5917   -7.5292    0.0000 C   0  0  0  0  0  0  0  0  0  0  0  0
    1.3167   -7.5292    0.0000 C   0  0  0  0  0  0  0  0  0  0  0  0
    0.0792   -6.8167    0.0000 Cl  0  0  0  0  0  0  0  0  0  0  0  0
   10.8292   -8.2417    0.0000 F   0  0  0  0  0  0  0  0  0  0  0  0
    5.8667   -6.8167    0.0000 C   0  0  0  0  0  0  0  0  0  0  0  0
    6.2792   -7.5292    0.0000 C   0  0  0  0  0  0  0  0  0  0  0  0
    7.1125   -7.5292    0.0000 C   0  0  0  0  0  0  0  0  0  0  0  0
  2 10  1  0
  3  1  1  0
  4  1  1  0
  5  1  1  0
  6 26  1  0
  7  6  1  0
  8  6  2  0
  9  3  1  0
 10  4  1  0
 11  5  2  0
 12  5  1  0
 13  7  2  0
 14  7  1  0
 15  1  1  0
 16 20  1  0
 17 21  1  0
 18 13  1  0
 19 11  1  0
 20 14  2  0
 21 12  2  0
 22 17  1  0
 23 16  1  0
 24  2  1  0
 25 24  1  0
 26 25  1  0
  2  9  1  0
 17 19  2  0
 16 18  2  0
M  END
>  <ID>  (430) 


>  <MOLENAME>  (430) 
HALOPERIDOL

>  <therap>  (430) 
antidyskinetic, antipsychotic

>  <ref>  (430) 
Br J Pharmacol 37:140 (1969); Toxicol Appl Pharmacol 18:185 (1971); Drugs 33:31 (1987)

>  <cas#>  (430) 
52-86-8

>  <source>  (430) 
synthetic; R-1625, McN-JR-1625

>  <status>  (430) 
USP, INN, BAN, JAN

>  <tradename>  (430) 
HALDOL

>  <SMILES>  (430) 
O=C(CCCN1CCC(O)(c2ccc(Cl)cc2)CC1)c1ccc(F)cc1

>  <standardized_failed>  (430) 
False

$$$$

     RDKit          2D

 28 30  0  0  0  0  0  0  0  0999 V2000
    5.9417   -5.4250    0.0000 N   0  0  0  0  0  0  0  0  0  0  0  0
    7.6625   -4.4417    0.0000 N   0  0  0  0  0  0  0  0  0  0  0  0
    6.5875   -4.9125    0.0000 C   0  0  0  0  0  0  0  0  0  0  0  0
    7.3542   -5.2167    0.0000 C   0  0  0  0  0  0  0  0  0  0  0  0
    6.8917   -4.1417    0.0000 C   0  0  0  0  0  0  0  0  0  0  0  0
    5.1167   -5.4667    0.0000 C   0  0  0  0  0  0  0  0  0  0  0  0
    6.2292   -6.1917    0.0000 C   0  0  0  0  0  0  0  0  0  0  0  0
    8.4792   -4.3167    0.0000 C   0  0  0  0  0  0  0  0  0  0  0  0
    8.0750   -5.5542    0.0000 S   0  0  0  0  0  0  0  0  0  0  0  0
    5.5917   -6.7167    0.0000 N   0  0  0  0  0  0  0  0  0  0  0  0
    8.8250   -5.0542    0.0000 C   0  0  0  0  0  0  0  0  0  0  0  0
    4.9000   -6.2667    0.0000 C   0  0  0  0  0  0  0  0  0  0  0  0
    8.7875   -3.5542    0.0000 C   0  0  0  0  0  0  0  0  0  0  0  0
    6.5625   -3.3792    0.0000 O   0  0  0  0  0  0  0  0  0  0  0  0
    4.6000   -4.8167    0.0000 O   0  0  0  0  0  0  0  0  0  0  0  0
    9.6042   -3.4375    0.0000 O   0  0  0  0  0  0  0  0  0  0  0  0
    4.1125   -6.0542    0.0000 C   0  0  0  0  0  0  0  0  0  0  0  0
    8.2792   -2.9042    0.0000 O   0  0  0  0  0  0  0  0  0  0  0  0
    6.6375   -6.9125    0.0000 C   0  0  0  0  0  0  0  0  0  0  0  0
    6.9542   -5.7875    0.0000 C   0  0  0  0  0  0  0  0  0  0  0  0
    9.2292   -5.6792    0.0000 C   0  0  0  0  0  0  0  0  0  0  0  0
    9.5750   -4.6167    0.0000 C   0  0  0  0  0  0  0  0  0  0  0  0
   10.2917   -4.0292    0.0000 K   0  0  0  0  0 15  0  0  0  0  0  0
    3.9000   -5.2667    0.0000 C   0  0  0  0  0  0  0  0  0  0  0  0
    3.5292   -6.6292    0.0000 C   0  0  0  0  0  0  0  0  0  0  0  0
    2.7417   -6.4167    0.0000 C   0  0  0  0  0  0  0  0  0  0  0  0
    3.1000   -5.0542    0.0000 C   0  0  0  0  0  0  0  0  0  0  0  0
    2.5292   -5.6167    0.0000 C   0  0  0  0  0  0  0  0  0  0  0  0
  2  5  1  0
  1  3  1  0
  4  3  1  0
  5  3  1  0
  6  1  1  0
  7  1  1  0
  8  2  1  0
  4  9  1  6
 10  7  1  0
 11  9  1  0
 12  6  1  0
  8 13  1  1
 14  5  2  0
 15  6  2  0
 16 13  1  0
 12 17  1  0
 18 13  2  0
 19  7  1  0
 20  7  1  0
 21 11  1  0
 22 11  1  0
 24 17  2  0
 25 17  1  0
 26 25  2  0
 27 24  1  0
 28 27  2  0
 12 10  1  6
  2  4  1  0
  8 11  1  0
 26 28  1  0
M  CHG  2  16  -1  23   1
M  END
>  <ID>  (431) 


>  <MOLENAME>  (431) 
HETACILLIN POTASSIUM

>  <therap>  (431) 
antibacterial

>  <ref>  (431) 
Br. Med. J. (1967), II(5555), 804-8; Antimicrob. Agents Chemother. (1965), 947-50; J. Org. Chem. (1966), 31(3), 897-9

>  <cas#>  (431) 
5321-32-4, 3511-16-8 [hetacillin]

>  <source>  (431) 
semisynthetic; BRL-804, BL-P-804

>  <status>  (431) 
USP-XIII, JAN

>  <tradename>  (431) 
VERSAPEN

>  <SMILES>  (431) 
CC1(C)S[C@@H]2C(N3C(=O)[C@@H](c4ccccc4)NC3(C)C)C(=O)N2[C@H]1C(=O)O

>  <standardized_failed>  (431) 
False

$$$$

     RDKit          2D

 21 22  0  0  0  0  0  0  0  0999 V2000
    3.3167   -8.6750    0.0000 C   0  0  0  0  0  0  0  0  0  0  0  0
    5.1417   -8.7042    0.0000 C   0  0  0  0  0  0  0  0  0  0  0  0
    4.1417   -8.1792    0.0000 C   0  0  0  0  0  0  0  0  0  0  0  0
    5.1417   -9.4625    0.0000 C   0  0  0  0  0  0  0  0  0  0  0  0
    3.3167   -9.4292    0.0000 C   0  0  0  0  0  0  0  0  0  0  0  0
    5.7875   -8.3292    0.0000 C   0  0  0  0  0  0  0  0  0  0  0  0
    2.6667   -8.2917    0.0000 C   0  0  0  0  0  0  0  0  0  0  0  0
    2.6667   -9.8042    0.0000 C   0  0  0  0  0  0  0  0  0  0  0  0
    5.7875   -9.8375    0.0000 C   0  0  0  0  0  0  0  0  0  0  0  0
    2.0167   -8.6750    0.0000 C   0  0  0  0  0  0  0  0  0  0  0  0
    6.4417   -8.7042    0.0000 C   0  0  0  0  0  0  0  0  0  0  0  0
    6.4417   -9.4625    0.0000 C   0  0  0  0  0  0  0  0  0  0  0  0
    2.0167   -9.4292    0.0000 C   0  0  0  0  0  0  0  0  0  0  0  0
    4.5500   -9.9917    0.0000 Cl  0  0  0  0  0  0  0  0  0  0  0  0
    3.8917   -9.8917    0.0000 Cl  0  0  0  0  0  0  0  0  0  0  0  0
    7.0917   -8.3292    0.0000 Cl  0  0  0  0  0  0  0  0  0  0  0  0
    5.7875  -10.5875    0.0000 Cl  0  0  0  0  0  0  0  0  0  0  0  0
    2.6667  -10.5542    0.0000 Cl  0  0  0  0  0  0  0  0  0  0  0  0
    1.3667   -8.3000    0.0000 Cl  0  0  0  0  0  0  0  0  0  0  0  0
    5.7875   -7.5792    0.0000 O   0  0  0  0  0  0  0  0  0  0  0  0
    2.6667   -7.5417    0.0000 O   0  0  0  0  0  0  0  0  0  0  0  0
  2  3  1  0
  3  1  1  0
  4  2  2  0
  5  1  2  0
  6  2  1  0
  7  1  1  0
  8  5  1  0
  9  4  1  0
 10  7  2  0
 11  6  2  0
 12 11  1  0
 13 10  1  0
 14  4  1  0
 15  5  1  0
 16 11  1  0
 17  9  1  0
 18  8  1  0
 19 10  1  0
 20  6  1  0
 21  7  1  0
  8 13  2  0
 12  9  2  0
M  END
>  <ID>  (432) 


>  <MOLENAME>  (432) 
HEXACHLOROPHENE

>  <therap>  (432) 
antiinfective (topical)

>  <ref>  (432) 
J. Am. Pharm. Assoc. (1949), 10, 488-91; Br. Med. J. (1959), 2(5152), 606-9; J. Invest. Dermatol. (1950), 15(3), 257-63

>  <cas#>  (432) 
70-30-4

>  <source>  (432) 
synthetic

>  <status>  (432) 
USP, INN, BAN

>  <tradename>  (432) 
PHISOHEX

>  <SMILES>  (432) 
Oc1c(Cl)cc(Cl)c(Cl)c1Cc1c(Cl)c(Cl)cc(Cl)c1O

>  <standardized_failed>  (432) 
False

$$$$

     RDKit          2D

 14 14  0  0  0  0  0  0  0  0999 V2000
    2.0292   -1.7000    0.0000 C   0  0  0  0  0  0  0  0  0  0  0  0
    1.2792   -1.7000    0.0000 C   0  0  0  0  0  0  0  0  0  0  0  0
    2.4042   -2.3417    0.0000 C   0  0  0  0  0  0  0  0  0  0  0  0
    2.0292   -2.9917    0.0000 C   0  0  0  0  0  0  0  0  0  0  0  0
    0.9042   -2.3417    0.0000 C   0  0  0  0  0  0  0  0  0  0  0  0
    2.4125   -1.0417    0.0000 O   0  0  0  0  0  0  0  0  0  0  0  0
    1.2792   -2.9917    0.0000 C   0  0  0  0  0  0  0  0  0  0  0  0
    0.1542   -2.3417    0.0000 O   0  0  0  0  0  0  0  0  0  0  0  0
    3.1542   -2.3417    0.0000 C   0  0  0  0  0  0  0  0  0  0  0  0
    3.5292   -1.7000    0.0000 C   0  0  0  0  0  0  0  0  0  0  0  0
    5.4042   -1.0542    0.0000 C   0  0  0  0  0  0  0  0  0  0  0  0
    4.6542   -1.0542    0.0000 C   0  0  0  0  0  0  0  0  0  0  0  0
    4.2792   -1.7000    0.0000 C   0  0  0  0  0  0  0  0  0  0  0  0
    5.7792   -0.4042    0.0000 C   0  0  0  0  0  0  0  0  0  0  0  0
  2  1  2  0
  3  1  1  0
  4  3  2  0
  5  2  1  0
  6  1  1  0
  7  4  1  0
  8  5  1  0
  9  3  1  0
 10  9  1  0
 11 12  1  0
 12 13  1  0
 13 10  1  0
 14 11  1  0
  7  5  2  0
M  END
>  <ID>  (433) 


>  <MOLENAME>  (433) 
HEXYLRESORCINOL

>  <therap>  (433) 
anthelmintic, topical antiseptic

>  <ref>  (433) 
Appl. Biochem. Microbiol. (2010), 46(2), 159-165; J. Pharm. Pharmacol. (1959), 11421-6; Nature (1957), 180(4599), 1425-6

>  <cas#>  (433) 
136-77-6

>  <source>  (433) 
synthetic

>  <status>  (433) 
USP, BAN

>  <tradename>  (433) 
nan

>  <SMILES>  (433) 
CCCCCCc1ccc(O)cc1O

>  <standardized_failed>  (433) 
False

$$$$

     RDKit          2D

 10  8  0  0  0  0  0  0  0  0999 V2000
    6.1625   -2.7750    0.0000 N   0  0  0  0  0  0  0  0  0  0  0  0
    5.8625   -3.4625    0.0000 C   0  0  0  0  0  0  0  0  0  0  0  0
    4.9625   -2.6500    0.0000 N   0  0  0  0  0  0  0  0  0  0  0  0
    5.6042   -2.2750    0.0000 C   0  0  0  0  0  0  0  0  0  0  0  0
    5.1167   -3.3875    0.0000 C   0  0  0  0  0  0  0  0  0  0  0  0
    6.2500   -4.1125    0.0000 C   0  0  0  0  0  0  0  0  0  0  0  0
    7.5750   -2.4917    0.0000 Cl  0  0  0  0  0  0  0  0  0  0  0  0
    9.0750   -4.6167    0.0000 Cl  0  0  0  0  0  0  0  0  0  0  0  0
    7.3792   -4.7500    0.0000 N   0  0  0  0  0  0  0  0  0  0  0  0
    7.0042   -4.1042    0.0000 C   0  0  0  0  0  0  0  0  0  0  0  0
  2  1  1  0
  3  4  1  0
  4  1  2  0
  5  2  2  0
  6  2  1  0
  9 10  1  0
 10  6  1  0
  5  3  1  0
M  END
>  <ID>  (434) 


>  <MOLENAME>  (434) 
HISTAMINE DIHYDROCHLORIDE

>  <therap>  (434) 
H1&2 agonist, edema induction, gastric secretion stimulant

>  <ref>  (434) 
JACS 40:1716 (1918); J Biol Chem 180:703 (1949); Arzneim-Forsch 9:22 (1959)

>  <cas#>  (434) 
51-45-6 [histamine]

>  <source>  (434) 
Claviceps purpurea, many plants and animals

>  <status>  (434) 
USAN

>  <tradename>  (434) 
nan

>  <SMILES>  (434) 
NCCc1c[nH]cn1

>  <standardized_failed>  (434) 
False

$$$$

     RDKit          2D

 21 22  0  0  0  0  0  0  0  0999 V2000
    3.9250   -0.7167    0.0000 N   0  0  0  0  0  0  0  0  0  0  0  0
    6.5667   -2.5875    0.0000 C   0  0  0  0  0  0  0  0  0  0  0  0
    4.2667   -0.0000    0.0000 C   0  0  0  0  0  0  0  0  0  0  0  0
    3.5667   -1.8792    0.0000 C   0  0  0  0  0  0  0  0  0  0  0  0
    5.5500   -1.3750    0.0000 C   0  0  0  0  0  0  0  0  0  0  0  0
    5.8542   -2.1750    0.0000 O   0  0  0  0  0  0  0  0  0  0  0  0
    4.5417   -1.8417    0.0000 C   0  0  0  0  0  0  0  0  0  0  0  0
    5.3042   -0.4542    0.0000 C   0  0  0  0  0  0  0  0  0  0  0  0
    7.2792   -2.1750    0.0000 C   0  0  0  0  0  0  0  0  0  0  0  0
    6.5667   -3.4167    0.0000 O   0  0  0  0  0  0  0  0  0  0  0  0
    3.2917   -0.0417    0.0000 C   0  0  0  0  0  0  0  0  0  0  0  0
    2.8000   -0.8750    0.0000 C   0  0  0  0  0  0  0  0  0  0  0  0
    8.0042   -2.5917    0.0000 C   0  0  0  0  0  0  0  0  0  0  0  0
    4.8917   -0.9667    0.0000 C   0  0  0  0  0  0  0  0  0  0  0  0
    7.2792   -1.3417    0.0000 O   0  0  0  0  0  0  0  0  0  0  0  0
    5.9667    0.7833    0.0000 Br  0  0  0  0  0  0  0  0  0  0  0  0
    8.7167   -2.1792    0.0000 C   0  0  0  0  0  0  0  0  0  0  0  0
    8.0042   -3.4167    0.0000 C   0  0  0  0  0  0  0  0  0  0  0  0
    8.7167   -3.8292    0.0000 C   0  0  0  0  0  0  0  0  0  0  0  0
    9.4292   -2.5917    0.0000 C   0  0  0  0  0  0  0  0  0  0  0  0
    9.4292   -3.4167    0.0000 C   0  0  0  0  0  0  0  0  0  0  0  0
  2  6  1  0
  3  1  1  0
  4  1  1  0
  5  7  1  0
  5  6  1  6
  4  7  1  6
  8  3  1  0
  9  2  1  0
 10  2  2  0
 11  3  1  0
 12  4  1  0
 13  9  1  0
 14  1  1  0
 15  9  1  0
 17 13  2  0
 18 13  1  0
 19 18  2  0
 20 17  1  0
 21 20  2  0
 11 12  1  0
  8  5  1  0
 19 21  1  0
M  END
>  <ID>  (435) 


>  <MOLENAME>  (435) 
HOMATROPINE HYDROBROMIDE

>  <therap>  (435) 
anticholinergic (opthalmic)

>  <ref>  (435) 
Trans. N. Y. Acad. Sci. (1953), 16, 2-13; Q. J. Pharm. Pharmacol. (1944), 17, 88-95; Arch. Ophthalmol. (1940), 23, 340-50

>  <cas#>  (435) 
51-56-9, 87-00-3 [homatropine]

>  <source>  (435) 
semisynthetic

>  <status>  (435) 
USP, JAN

>  <tradename>  (435) 
ISOPTO

>  <SMILES>  (435) 
CN1C2CC[C@H]1C[C@@H](OC(=O)C(O)c1ccccc1)C2

>  <standardized_failed>  (435) 
False

$$$$

     RDKit          2D

 22 23  0  0  0  0  0  0  0  0999 V2000
    4.3917   -1.1250    0.0000 N   0  0  0  0  0  0  0  0  0  0  0  0
    6.6375   -2.7625    0.0000 C   0  0  0  0  0  0  0  0  0  0  0  0
    4.1417   -0.1250    0.0000 C   0  0  0  0  0  0  0  0  0  0  0  0
    3.6417   -1.9375    0.0000 C   0  0  0  0  0  0  0  0  0  0  0  0
    5.8875   -1.5542    0.0000 C   0  0  0  0  0  0  0  0  0  0  0  0
    5.9167   -2.3500    0.0000 O   0  0  0  0  0  0  0  0  0  0  0  0
    4.8917   -2.4292    0.0000 C   0  0  0  0  0  0  0  0  0  0  0  0
    5.3667   -0.6250    0.0000 C   0  0  0  0  0  0  0  0  0  0  0  0
    7.3500   -2.3500    0.0000 C   0  0  0  0  0  0  0  0  0  0  0  0
    6.6375   -3.5875    0.0000 O   0  0  0  0  0  0  0  0  0  0  0  0
    3.3542   -0.2125    0.0000 C   0  0  0  0  0  0  0  0  0  0  0  0
    2.5792   -0.9625    0.0000 C   0  0  0  0  0  0  0  0  0  0  0  0
    2.4458    0.9875    0.0000 Br  0  0  0  0  0  0  0  0  0  0  0  0
    8.0667   -2.7625    0.0000 C   0  0  0  0  0  0  0  0  0  0  0  0
    5.2375   -1.4375    0.0000 C   0  0  0  0  0  0  0  0  0  0  0  0
    3.1750   -0.7500    0.0000 C   0  0  0  0  0  0  0  0  0  0  0  0
    7.3500   -1.5167    0.0000 O   0  0  0  0  0  0  0  0  0  0  0  0
    8.7792   -2.3500    0.0000 C   0  0  0  0  0  0  0  0  0  0  0  0
    8.0667   -3.5875    0.0000 C   0  0  0  0  0  0  0  0  0  0  0  0
    8.7792   -4.0000    0.0000 C   0  0  0  0  0  0  0  0  0  0  0  0
    9.5000   -2.7625    0.0000 C   0  0  0  0  0  0  0  0  0  0  0  0
    9.5000   -3.5875    0.0000 C   0  0  0  0  0  0  0  0  0  0  0  0
  2  6  1  0
  3  1  1  0
  4  1  1  0
  5  7  1  0
  5  6  1  6
  4  7  1  6
  8  3  1  0
  9  2  1  0
 10  2  2  0
 11  3  1  0
 12  4  1  0
 14  9  1  0
 15  1  1  0
 16  1  1  0
 17  9  1  0
 18 14  2  0
 19 14  1  0
 20 19  2  0
 21 18  1  0
 22 21  2  0
 11 12  1  0
  8  5  1  0
 20 22  1  0
M  CHG  2   1   1  13  -1
M  END
>  <ID>  (436) 


>  <MOLENAME>  (436) 
HOMATROPINE METHYLBROMIDE

>  <therap>  (436) 
anticholinergic (opthalmic)

>  <ref>  (436) 
Arch. Int. Pharmacodyn. Ther. (1967), 170(2), 461-7; J. Pharmacol. Exp. Ther. (1952), 104, 387-95; Arch. Exp. Pathol. Pharmakol. (1943), 202, 201-8

>  <cas#>  (436) 
80-49-9, 87-00-3 [homatropine]

>  <source>  (436) 
semisynthetic

>  <status>  (436) 
USP, INN, BAN

>  <tradename>  (436) 
EQUIPIN

>  <SMILES>  (436) 
C[N+]1(C)C2CC[C@H]1C[C@@H](OC(=O)C(O)c1ccccc1)C2

>  <standardized_failed>  (436) 
False

$$$$

     RDKit          2D

 13 13  0  0  0  0  0  0  0  0999 V2000
    6.8125   -3.4042    0.0000 C   0  0  0  0  0  0  0  0  0  0  0  0
    7.4625   -3.7792    0.0000 N   0  0  0  0  0  0  0  0  0  0  0  0
    7.4625   -4.5292    0.0000 N   0  0  0  0  0  0  0  0  0  0  0  0
    6.1625   -3.7792    0.0000 C   0  0  0  0  0  0  0  0  0  0  0  0
    6.8125   -2.6542    0.0000 N   0  0  0  0  0  0  0  0  0  0  0  0
    6.1625   -4.5292    0.0000 C   0  0  0  0  0  0  0  0  0  0  0  0
    6.1625   -2.2792    0.0000 N   0  0  0  0  0  0  0  0  0  0  0  0
    8.3542   -2.4667    0.0000 Cl  0  0  0  0  0  0  0  0  0  0  0  0
    6.8125   -4.9042    0.0000 C   0  0  0  0  0  0  0  0  0  0  0  0
    5.5167   -3.4042    0.0000 C   0  0  0  0  0  0  0  0  0  0  0  0
    5.5167   -4.9042    0.0000 C   0  0  0  0  0  0  0  0  0  0  0  0
    4.8667   -3.7792    0.0000 C   0  0  0  0  0  0  0  0  0  0  0  0
    4.8667   -4.5292    0.0000 C   0  0  0  0  0  0  0  0  0  0  0  0
  2  1  2  0
  3  2  1  0
  4  1  1  0
  5  1  1  0
  6  4  2  0
  7  5  1  0
  9  6  1  0
 10  4  1  0
 11  6  1  0
 12 10  2  0
 13 12  1  0
  3  9  2  0
 13 11  2  0
M  END
>  <ID>  (437) 


>  <MOLENAME>  (437) 
HYDRALAZINE HYDROCHLORIDE

>  <therap>  (437) 
antihypertensive

>  <ref>  (437) 
J. Clin. Hypertens. (2011), 13(9), 690-692; J. Pharm. Pharmacol. (1957), 9(12), 877-87; Angiology (1956), 7(4), 368-77

>  <cas#>  (437) 
304-20-1, 86-54-4 [hydralazine]

>  <source>  (437) 
semisynthetic

>  <status>  (437) 
USP, INN, BAN

>  <tradename>  (437) 
APRESOLINE

>  <SMILES>  (437) 
NNc1nncc2c1cccc2

>  <standardized_failed>  (437) 
False

$$$$

     RDKit          2D

 17 18  0  0  0  0  0  0  0  0999 V2000
    4.6792   -1.7750    0.0000 S   0  0  0  0  0  0  0  0  0  0  0  0
    2.0875   -1.7667    0.0000 S   0  0  0  0  0  0  0  0  0  0  0  0
    4.0375   -2.1500    0.0000 C   0  0  0  0  0  0  0  0  0  0  0  0
    2.7417   -2.1500    0.0000 C   0  0  0  0  0  0  0  0  0  0  0  0
    5.3292   -2.1500    0.0000 N   0  0  0  0  0  0  0  0  0  0  0  0
    3.3917   -1.7750    0.0000 C   0  0  0  0  0  0  0  0  0  0  0  0
    4.0375   -2.9000    0.0000 C   0  0  0  0  0  0  0  0  0  0  0  0
    2.7417   -2.9000    0.0000 C   0  0  0  0  0  0  0  0  0  0  0  0
    3.3917   -3.2750    0.0000 C   0  0  0  0  0  0  0  0  0  0  0  0
    4.2000   -1.1917    0.0000 O   0  0  0  0  0  0  0  0  0  0  0  0
    5.2625   -1.2917    0.0000 O   0  0  0  0  0  0  0  0  0  0  0  0
    4.6792   -3.2750    0.0000 N   0  0  0  0  0  0  0  0  0  0  0  0
    5.3292   -2.9000    0.0000 C   0  0  0  0  0  0  0  0  0  0  0  0
    2.4667   -1.1167    0.0000 O   0  0  0  0  0  0  0  0  0  0  0  0
    1.7042   -2.4250    0.0000 O   0  0  0  0  0  0  0  0  0  0  0  0
    1.4292   -1.3917    0.0000 N   0  0  0  0  0  0  0  0  0  0  0  0
    2.0875   -3.2792    0.0000 Cl  0  0  0  0  0  0  0  0  0  0  0  0
  2  4  1  0
  3  1  1  0
  4  6  2  0
  5  1  1  0
  6  3  1  0
  7  3  2  0
  8  9  2  0
  9  7  1  0
 10  1  2  0
 11  1  2  0
 12 13  1  0
 13  5  1  0
 14  2  2  0
 15  2  2  0
 16  2  1  0
 17  8  1  0
 12  7  1  0
  8  4  1  0
M  END
>  <ID>  (438) 


>  <MOLENAME>  (438) 
HYDROCHLOROTHIAZIDE

>  <therap>  (438) 
diuretic

>  <ref>  (438) 
J Pharmacol Exper Ther 134:273 (1961); Anal Profiles Drug Subs 10:405 (1981)

>  <cas#>  (438) 
58-93-5

>  <source>  (438) 
semisynthetic

>  <status>  (438) 
USP, INN, BAN, JAN

>  <tradename>  (438) 
ESIDRIX

>  <SMILES>  (438) 
NS(=O)(=O)c1cc2c(cc1Cl)NCNS2(=O)=O

>  <standardized_failed>  (438) 
False

$$$$

     RDKit          2D

 29 32  0  0  0  0  0  0  0  0999 V2000
    7.5542   -6.1417    0.0000 C   0  0  0  0  0  0  0  0  0  0  0  0
    8.3417   -5.8875    0.0000 C   0  0  0  0  0  0  0  0  0  0  0  0
    5.4125   -7.3792    0.0000 C   0  0  0  0  0  0  0  0  0  0  0  0
    6.8417   -7.3792    0.0000 C   0  0  0  0  0  0  0  0  0  0  0  0
    7.5542   -6.9667    0.0000 C   0  0  0  0  0  0  0  0  0  0  0  0
    6.1250   -6.9667    0.0000 C   0  0  0  0  0  0  0  0  0  0  0  0
    5.4125   -8.2125    0.0000 C   0  0  0  0  0  0  0  0  0  0  0  0
    6.8375   -5.7292    0.0000 C   0  0  0  0  0  0  0  0  0  0  0  0
    6.1250   -6.1417    0.0000 C   0  0  0  0  0  0  0  0  0  0  0  0
    8.5542   -5.0917    0.0000 C   0  0  0  0  0  0  0  0  0  0  0  0
    4.7000   -8.6250    0.0000 C   0  0  0  0  0  0  0  0  0  0  0  0
    8.8250   -6.5542    0.0000 C   0  0  0  0  0  0  0  0  0  0  0  0
    8.3417   -7.2250    0.0000 C   0  0  0  0  0  0  0  0  0  0  0  0
    6.8417   -8.2125    0.0000 C   0  0  0  0  0  0  0  0  0  0  0  0
    4.7000   -6.9667    0.0000 C   0  0  0  0  0  0  0  0  0  0  0  0
    6.1250   -8.6250    0.0000 C   0  0  0  0  0  0  0  0  0  0  0  0
    3.9792   -8.2125    0.0000 C   0  0  0  0  0  0  0  0  0  0  0  0
    6.6125   -4.1167    0.0000 C   0  0  0  0  0  0  0  0  0  0  0  0
    7.9792   -4.5042    0.0000 C   0  0  0  0  0  0  0  0  0  0  0  0
    9.3542   -4.8792    0.0000 O   0  0  0  0  0  0  0  0  0  0  0  0
    7.1875   -4.7042    0.0000 O   0  0  0  0  0  0  0  0  0  0  0  0
    6.8375   -3.3292    0.0000 O   0  0  0  0  0  0  0  0  0  0  0  0
    3.2625   -8.6292    0.0000 O   0  0  0  0  0  0  0  0  0  0  0  0
    9.0667   -5.9000    0.0000 O   0  0  0  0  0  0  0  0  0  0  0  0
    7.5542   -5.3167    0.0000 C   0  0  0  0  0  0  0  0  0  0  0  0
    3.9792   -7.3792    0.0000 C   0  0  0  0  0  0  0  0  0  0  0  0
    5.3667   -5.8042    0.0000 O   0  0  0  0  0  0  0  0  0  0  0  0
    5.4125   -6.5542    0.0000 C   0  0  0  0  0  0  0  0  0  0  0  0
    5.8125   -4.3167    0.0000 C   0  0  0  0  0  0  0  0  0  0  0  0
  2  1  1  0
  3  6  1  0
  4  5  1  0
  5  1  1  0
  6  9  1  0
  7  3  1  0
  8  1  1  0
  9  8  1  0
  2 10  1  0
 11  7  2  0
 12  2  1  0
 13  5  1  0
 14  4  1  0
 15  3  1  0
 16 14  1  0
 17 26  1  0
 18 21  1  0
 19 10  1  0
 20 10  2  0
 21 19  1  0
 22 18  2  0
 23 17  2  0
  2 24  1  6
  1 25  1  1
 26 15  1  0
  9 27  1  1
  3 28  1  1
 29 18  1  0
 12 13  1  0
  6  4  1  0
 16  7  1  0
 11 17  1  0
M  END
>  <ID>  (439) 


>  <MOLENAME>  (439) 
HYDROCORTISONE ACETATE

>  <therap>  (439) 
glucocorticoid, antiinflammatory

>  <ref>  (439) 
Arzneim. Forsch. (1960), 10, 921-3; J. Am. Chem. Soc. (1953), 75, 5486-9; Br. Med. J. (1952), 1952, I, 559-64

>  <cas#>  (439) 
50-03-3

>  <source>  (439) 
semisynthetic

>  <status>  (439) 
USP, INN, BAN, JAN

>  <tradename>  (439) 
CORTRIL

>  <SMILES>  (439) 
CC(=O)OCC(=O)[C@@]1(O)CCC2C3CCC4=CC(=O)CC[C@]4(C)C3[C@@H](O)C[C@@]21C

>  <standardized_failed>  (439) 
False

$$$$

     RDKit          2D

 33 36  0  0  0  0  0  0  0  0999 V2000
    6.2500   -7.2500    0.0000 C   0  0  0  0  0  0  0  0  0  0  0  0
    7.0292   -6.9917    0.0000 C   0  0  0  0  0  0  0  0  0  0  0  0
    4.1042   -8.4917    0.0000 C   0  0  0  0  0  0  0  0  0  0  0  0
    5.5292   -8.4917    0.0000 C   0  0  0  0  0  0  0  0  0  0  0  0
    6.2500   -8.0792    0.0000 C   0  0  0  0  0  0  0  0  0  0  0  0
    4.8167   -8.0792    0.0000 C   0  0  0  0  0  0  0  0  0  0  0  0
    4.1042   -9.3167    0.0000 C   0  0  0  0  0  0  0  0  0  0  0  0
    5.5292   -6.8375    0.0000 C   0  0  0  0  0  0  0  0  0  0  0  0
    4.8167   -7.2500    0.0000 C   0  0  0  0  0  0  0  0  0  0  0  0
    7.3667   -6.2417    0.0000 C   0  0  0  0  0  0  0  0  0  0  0  0
    3.3917   -9.7292    0.0000 C   0  0  0  0  0  0  0  0  0  0  0  0
    7.5167   -7.6625    0.0000 C   0  0  0  0  0  0  0  0  0  0  0  0
    7.0292   -8.3292    0.0000 C   0  0  0  0  0  0  0  0  0  0  0  0
    5.5292   -9.3167    0.0000 C   0  0  0  0  0  0  0  0  0  0  0  0
    3.3917   -8.0792    0.0000 C   0  0  0  0  0  0  0  0  0  0  0  0
    4.8167   -9.7292    0.0000 C   0  0  0  0  0  0  0  0  0  0  0  0
    9.3500   -5.3125    0.0000 C   0  0  0  0  0  0  0  0  0  0  0  0
    2.6750   -9.3167    0.0000 C   0  0  0  0  0  0  0  0  0  0  0  0
   10.8417   -3.7167    0.0000 C   0  0  0  0  0  0  0  0  0  0  0  0
    8.1917   -6.1542    0.0000 C   0  0  0  0  0  0  0  0  0  0  0  0
    6.8792   -5.5667    0.0000 O   0  0  0  0  0  0  0  0  0  0  0  0
    8.5292   -5.4000    0.0000 O   0  0  0  0  0  0  0  0  0  0  0  0
    9.8375   -5.9792    0.0000 O   0  0  0  0  0  0  0  0  0  0  0  0
   10.3542   -3.0417    0.0000 O   0  0  0  0  0  0  0  0  0  0  0  0
    1.9542   -9.7417    0.0000 O   0  0  0  0  0  0  0  0  0  0  0  0
    7.9500   -6.9625    0.0000 O   0  0  0  0  0  0  0  0  0  0  0  0
    6.2417   -6.4250    0.0000 C   0  0  0  0  0  0  0  0  0  0  0  0
    2.6750   -8.4917    0.0000 C   0  0  0  0  0  0  0  0  0  0  0  0
    4.1042   -6.8375    0.0000 O   0  0  0  0  0  0  0  0  0  0  0  0
    9.6875   -4.5542    0.0000 C   0  0  0  0  0  0  0  0  0  0  0  0
   10.5042   -4.4667    0.0000 C   0  0  0  0  0  0  0  0  0  0  0  0
    4.1042   -7.6625    0.0000 C   0  0  0  0  0  0  0  0  0  0  0  0
   11.6667   -3.6292    0.0000 O   0  0  0  0  0  0  0  0  0  0  0  0
  2  1  1  0
  3  6  1  0
  4  5  1  0
  5  1  1  0
  6  9  1  0
  7  3  1  0
  8  1  1  0
  9  8  1  0
  2 10  1  0
 11  7  2  0
 12  2  1  0
 13  5  1  0
 14  4  1  0
 15  3  1  0
 16 14  1  0
 17 22  1  0
 18 28  1  0
 19 31  1  0
 20 10  1  0
 21 10  2  0
 22 20  1  0
 23 17  2  0
 24 19  2  0
 25 18  2  0
  2 26  1  6
  1 27  1  1
 28 15  1  0
  9 29  1  1
 30 17  1  0
 31 30  1  0
  3 32  1  1
 33 19  1  0
 12 13  1  0
  6  4  1  0
 16  7  1  0
 11 18  1  0
M  END
>  <ID>  (440) 


>  <MOLENAME>  (440) 
HYDROCORTISONE HEMISUCCINATE

>  <therap>  (440) 
glucocorticoid

>  <ref>  (440) 
Rev. Rhum. (1955), 22, 657-64; AMA Arch. Dermatol. (1956), 74, 613-14; J. Clin. Gastroenterol. (1986), 8(2), 154-9

>  <cas#>  (440) 
83784-20-7, 2203-97-6 [anhydrous]

>  <source>  (440) 
semisynthetic

>  <status>  (440) 
USP, JAN

>  <tradename>  (440) 
nan

>  <SMILES>  (440) 
C[C@]12C[C@H](O)C3C(CCC4=CC(=O)CC[C@@]43C)C1CC[C@]2(O)C(=O)COC(=O)CCC(=O)O

>  <standardized_failed>  (440) 
False

$$$$

     RDKit          2D

 44 45  0  0  0  0  0  0  0  0999 V2000
    5.2500   -2.5167    0.0000 C   0  0  0  0  0  0  0  0  0  0  0  0
    6.0375   -2.2667    0.0000 C   0  0  0  0  0  0  0  0  0  0  0  0
    3.1042   -3.7542    0.0000 C   0  0  0  0  0  0  0  0  0  0  0  0
    4.5375   -3.7542    0.0000 C   0  0  0  0  0  0  0  0  0  0  0  0
    5.2500   -3.3417    0.0000 C   0  0  0  0  0  0  0  0  0  0  0  0
    3.8167   -3.3417    0.0000 C   0  0  0  0  0  0  0  0  0  0  0  0
    3.1042   -4.5917    0.0000 C   0  0  0  0  0  0  0  0  0  0  0  0
    8.4667   -0.7167    0.0000 P   0  0  0  0  0  0  0  0  0  0  0  0
    4.5292   -2.1042    0.0000 C   0  0  0  0  0  0  0  0  0  0  0  0
    3.8167   -2.5167    0.0000 C   0  0  0  0  0  0  0  0  0  0  0  0
    6.2625   -1.4167    0.0000 C   0  0  0  0  0  0  0  0  0  0  0  0
    2.3917   -5.0042    0.0000 C   0  0  0  0  0  0  0  0  0  0  0  0
    6.5167   -2.9292    0.0000 C   0  0  0  0  0  0  0  0  0  0  0  0
    6.0375   -3.6042    0.0000 C   0  0  0  0  0  0  0  0  0  0  0  0
    4.5375   -4.5917    0.0000 C   0  0  0  0  0  0  0  0  0  0  0  0
    2.3917   -3.3417    0.0000 C   0  0  0  0  0  0  0  0  0  0  0  0
    7.1792   -1.3917    0.0000 C   0  0  0  0  0  0  0  0  0  0  0  0
    7.6625   -0.7167    0.0000 O   0  0  0  0  0  0  0  0  0  0  0  0
    8.4792   -1.4667    0.0000 O   0  0  0  0  0  0  0  0  0  0  0  0
    8.4500    0.0708    0.0000 O   0  0  0  0  0  0  0  0  0  0  0  0
    3.8167   -5.0042    0.0000 C   0  0  0  0  0  0  0  0  0  0  0  0
   10.7417    0.7833    0.0000 N   0  0  0  0  0  0  0  0  0  0  0  0
   10.3292   -3.1500    0.0000 N   0  0  0  0  0  0  0  0  0  0  0  0
    1.6750   -4.5917    0.0000 C   0  0  0  0  0  0  0  0  0  0  0  0
    9.2000   -0.7167    0.0000 O   0  0  0  0  0  0  0  0  0  0  0  0
    5.9250   -0.6667    0.0000 O   0  0  0  0  0  0  0  0  0  0  0  0
    0.9542   -5.0042    0.0000 O   0  0  0  0  0  0  0  0  0  0  0  0
    6.8625   -2.3042    0.0000 O   0  0  0  0  0  0  0  0  0  0  0  0
    5.2500   -1.6917    0.0000 C   0  0  0  0  0  0  0  0  0  0  0  0
    1.6750   -3.7542    0.0000 C   0  0  0  0  0  0  0  0  0  0  0  0
    3.2750   -2.0542    0.0000 O   0  0  0  0  0  0  0  0  0  0  0  0
    3.1042   -2.9292    0.0000 C   0  0  0  0  0  0  0  0  0  0  0  0
   10.0167    1.1958    0.0000 C   0  0  0  0  0  0  0  0  0  0  0  0
   11.4542    1.1958    0.0000 C   0  0  0  0  0  0  0  0  0  0  0  0
   10.7417   -0.0417    0.0000 C   0  0  0  0  0  0  0  0  0  0  0  0
   11.0500   -2.7375    0.0000 C   0  0  0  0  0  0  0  0  0  0  0  0
   10.3292   -3.9750    0.0000 C   0  0  0  0  0  0  0  0  0  0  0  0
    9.6167   -2.7375    0.0000 C   0  0  0  0  0  0  0  0  0  0  0  0
   10.0167    2.0208    0.0000 C   0  0  0  0  0  0  0  0  0  0  0  0
   11.4542   -0.4542    0.0000 C   0  0  0  0  0  0  0  0  0  0  0  0
   12.1667    0.7833    0.0000 C   0  0  0  0  0  0  0  0  0  0  0  0
   11.7625   -3.1500    0.0000 C   0  0  0  0  0  0  0  0  0  0  0  0
   11.0500   -4.3792    0.0000 C   0  0  0  0  0  0  0  0  0  0  0  0
    9.6167   -1.9125    0.0000 C   0  0  0  0  0  0  0  0  0  0  0  0
  2  1  1  0
  3  6  1  0
  4  5  1  0
  5  1  1  0
  6 10  1  0
  7  3  1  0
  8 18  1  0
  9  1  1  0
 10  9  1  0
  2 11  1  0
 12  7  2  0
 13  2  1  0
 14  5  1  0
 15  4  1  0
 16  3  1  0
 17 11  1  0
 18 17  1  0
 19  8  1  0
 20  8  1  0
 21 15  1  0
 24 12  1  0
 25  8  2  0
 26 11  2  0
 27 24  2  0
  2 28  1  6
 29  1  1  0
 30 16  1  0
 10 31  1  1
 32  3  1  0
 33 22  1  0
 34 22  1  0
 35 22  1  0
 36 23  1  0
 37 23  1  0
 38 23  1  0
 39 33  1  0
 40 35  1  0
 41 34  1  0
 42 36  1  0
 43 37  1  0
 44 38  1  0
 13 14  1  0
  6  4  1  0
 21  7  1  0
 24 30  1  0
M  CHG  4  19  -1  20  -1  22   1  23   1
M  END
>  <ID>  (441) 


>  <MOLENAME>  (441) 
HYDROCORTISONE PHOSPHATE TRIETHYLAMINE

>  <therap>  (441) 
glucocorticoid

>  <ref>  (441) 
J. Pharm. Sci. (1986), 75(10), 934-9; Chem. Ind. (1958), 1260-1; J. Am. Chem. Soc. (1958), 80, 4435

>  <cas#>  (441) 
3863-59-0 [cortisol 21-(dihydrogen phosphate)]

>  <source>  (441) 
semisynthetic

>  <status>  (441) 
USP, INN, BAN, JAN

>  <tradename>  (441) 
HYDROCORTONE

>  <SMILES>  (441) 
CC12CCC(=O)C=C1CCC1C2[C@@H](O)CC2(C)C1CC[C@]2(O)C(=O)COP(=O)(O)O

>  <standardized_failed>  (441) 
False

$$$$

     RDKit          2D

 20 21  0  0  0  0  0  0  0  0999 V2000
    7.5042   -5.4875    0.0000 S   0  0  0  0  0  0  0  0  0  0  0  0
    6.8625   -5.8625    0.0000 C   0  0  0  0  0  0  0  0  0  0  0  0
    4.9125   -5.4792    0.0000 S   0  0  0  0  0  0  0  0  0  0  0  0
    5.5667   -6.6125    0.0000 C   0  0  0  0  0  0  0  0  0  0  0  0
    5.5667   -5.8625    0.0000 C   0  0  0  0  0  0  0  0  0  0  0  0
    8.1542   -5.8625    0.0000 N   0  0  0  0  0  0  0  0  0  0  0  0
    4.9125   -6.9875    0.0000 C   0  0  0  0  0  0  0  0  0  0  0  0
    6.2167   -5.4875    0.0000 C   0  0  0  0  0  0  0  0  0  0  0  0
    6.8625   -6.6125    0.0000 C   0  0  0  0  0  0  0  0  0  0  0  0
    6.2167   -6.9875    0.0000 C   0  0  0  0  0  0  0  0  0  0  0  0
    7.9917   -4.9125    0.0000 O   0  0  0  0  0  0  0  0  0  0  0  0
    7.0250   -4.9042    0.0000 O   0  0  0  0  0  0  0  0  0  0  0  0
    7.5042   -6.9875    0.0000 N   0  0  0  0  0  0  0  0  0  0  0  0
    8.1542   -6.6125    0.0000 C   0  0  0  0  0  0  0  0  0  0  0  0
    5.5167   -4.7417    0.0000 O   0  0  0  0  0  0  0  0  0  0  0  0
    4.4792   -4.6500    0.0000 O   0  0  0  0  0  0  0  0  0  0  0  0
    3.9542   -5.4917    0.0000 N   0  0  0  0  0  0  0  0  0  0  0  0
    4.5292   -6.3375    0.0000 F   0  0  0  0  0  0  0  0  0  0  0  0
    5.2917   -7.6417    0.0000 F   0  0  0  0  0  0  0  0  0  0  0  0
    4.2542   -7.3667    0.0000 F   0  0  0  0  0  0  0  0  0  0  0  0
  2  1  1  0
  3  5  1  0
  4 10  2  0
  5  8  2  0
  6  1  1  0
  7  4  1  0
  8  2  1  0
  9  2  2  0
 10  9  1  0
 11  1  2  0
 12  1  2  0
 13 14  1  0
 14  6  1  0
 15  3  2  0
 16  3  2  0
 17  3  1  0
 18  7  1  0
 19  7  1  0
 20  7  1  0
 13  9  1  0
  4  5  1  0
M  END
>  <ID>  (442) 


>  <MOLENAME>  (442) 
HYDROFLUMETHIAZIDE

>  <therap>  (442) 
antihypertensive, diuretic

>  <ref>  (442) 
Am. J. Physiol. (1991), 261(3 Pt 2), F452-8; Am. J. Cardiol. (1960), 5, 402-6; Acta Pharmacol. Toxicol. (1959), 15, 265-74

>  <cas#>  (442) 
135-09-1

>  <source>  (442) 
synthetic

>  <status>  (442) 
USP, INN, BAN, JAN

>  <tradename>  (442) 
DIUCARDIN

>  <SMILES>  (442) 
NS(=O)(=O)c1cc2c(cc1C(F)(F)F)NCNS2(=O)=O

>  <standardized_failed>  (442) 
False

$$$$

     RDKit          2D

 12 12  0  0  0  0  0  0  0  0999 V2000
    4.6125   -3.7917    0.0000 C   0  0  0  0  0  0  0  0  0  0  0  0
    5.0250   -4.5042    0.0000 C   0  0  0  0  0  0  0  0  0  0  0  0
    5.8542   -4.5042    0.0000 C   0  0  0  0  0  0  0  0  0  0  0  0
    6.2667   -3.7917    0.0000 C   0  0  0  0  0  0  0  0  0  0  0  0
    5.8542   -3.0792    0.0000 C   0  0  0  0  0  0  0  0  0  0  0  0
    5.0250   -3.0792    0.0000 C   0  0  0  0  0  0  0  0  0  0  0  0
    7.0917   -3.7917    0.0000 O   0  0  0  0  0  0  0  0  0  0  0  0
    6.2750   -2.3542    0.0000 O   0  0  0  0  0  0  0  0  0  0  0  0
    4.6042   -2.3542    0.0000 O   0  0  0  0  0  0  0  0  0  0  0  0
    4.6042   -5.2292    0.0000 O   0  0  0  0  0  0  0  0  0  0  0  0
    6.2750   -5.2292    0.0000 O   0  0  0  0  0  0  0  0  0  0  0  0
    3.7875   -3.7917    0.0000 O   0  0  0  0  0  0  0  0  0  0  0  0
  2  1  1  0
  3  2  1  0
  4  5  1  0
  5  6  1  0
  6  1  1  0
  4  7  1  1
  5  8  1  1
  6  9  1  1
  2 10  1  1
  3 11  1  6
  1 12  1  6
  4  3  1  0
M  END
>  <ID>  (443) 


>  <MOLENAME>  (443) 
INOSITOL

>  <therap>  (443) 
growth factor

>  <ref>  (443) 
Biochem. J. (1986), 235(2), 313-22; Nature (1984), 309(5963), 63-6; Nat. Prod. Rep. (2010), 27(10), 1403-1430

>  <cas#>  (443) 
87-89-8

>  <source>  (443) 
lipotropic polyol widely distributed in plants and animals

>  <status>  (443) 
NF-XII

>  <tradename>  (443) 
nan

>  <SMILES>  (443) 
O[C@H]1[C@H](O)[C@@H](O)[C@H](O)[C@@H](O)[C@H]1O

>  <standardized_failed>  (443) 
False

$$$$

     RDKit          2D

  5  4  0  0  0  0  0  0  0  0999 V2000
    3.4417   -2.6125    0.0000 C   0  0  0  0  0  0  0  0  0  0  0  0
    4.1375   -3.0167    0.0000 O   0  0  0  0  0  0  0  0  0  0  0  0
    3.4417   -1.8625    0.0000 N   0  0  0  0  0  0  0  0  0  0  0  0
    2.7917   -2.9875    0.0000 N   0  0  0  0  0  0  0  0  0  0  0  0
    4.3250   -1.1792    0.0000 O   0  0  0  0  0  0  0  0  0  0  0  0
  2  1  2  0
  3  1  1  0
  4  1  1  0
  5  3  1  0
M  END
>  <ID>  (444) 


>  <MOLENAME>  (444) 
HYDROXYUREA

>  <therap>  (444) 
antineoplastic, inhibits ribonucleoside diphosphate reductase

>  <ref>  (444) 
Mutat. Res. (1975), 32(2), 115-32; Cancer (1972), 30(6), 1639-46; Expert Rev. Anticancer Ther. (2011), 11(3), 403-414

>  <cas#>  (444) 
127-07-1

>  <source>  (444) 
synthetic; SQ-1089, NSC-32065

>  <status>  (444) 
USP, INN, BAN

>  <tradename>  (444) 
HYDREA

>  <SMILES>  (444) 
NC(=O)NO

>  <standardized_failed>  (444) 
False

$$$$

     RDKit          2D

 55 60  0  0  0  0  0  0  0  0999 V2000
    8.3417   -6.7917    0.0000 C   0  0  0  0  0  0  0  0  0  0  0  0
    9.3167   -3.4792    0.0000 C   0  0  0  0  0  0  0  0  0  0  0  0
    8.7042   -4.5167    0.0000 C   0  0  0  0  0  0  0  0  0  0  0  0
    7.7375   -5.7500    0.0000 C   0  0  0  0  0  0  0  0  0  0  0  0
    8.3417   -6.1000    0.0000 C   0  0  0  0  0  0  0  0  0  0  0  0
    8.7042   -3.8250    0.0000 C   0  0  0  0  0  0  0  0  0  0  0  0
    7.7292   -5.0917    0.0000 C   0  0  0  0  0  0  0  0  0  0  0  0
    7.7417   -7.1417    0.0000 C   0  0  0  0  0  0  0  0  0  0  0  0
    9.9167   -3.8292    0.0000 C   0  0  0  0  0  0  0  0  0  0  0  0
    2.3000   -6.4917    0.0000 N   0  0  0  0  0  0  0  0  0  0  0  0
    9.3167   -2.7792    0.0000 C   0  0  0  0  0  0  0  0  0  0  0  0
    8.9500   -7.1375    0.0000 C   0  0  0  0  0  0  0  0  0  0  0  0
    7.1292   -6.1042    0.0000 C   0  0  0  0  0  0  0  0  0  0  0  0
    9.3125   -4.8750    0.0000 C   0  0  0  0  0  0  0  0  0  0  0  0
    9.9167   -4.5292    0.0000 C   0  0  0  0  0  0  0  0  0  0  0  0
    7.1292   -6.7917    0.0000 C   0  0  0  0  0  0  0  0  0  0  0  0
    2.3000   -7.2417    0.0000 C   0  0  0  0  0  0  0  0  0  0  0  0
    2.3000   -4.9917    0.0000 N   0  0  0  0  0  0  0  0  0  0  0  0
    2.9417   -7.6167    0.0000 C   0  0  0  0  0  0  0  0  0  0  0  0
    1.6417   -6.1167    0.0000 C   0  0  0  0  0  0  0  0  0  0  0  0
    2.9417   -6.1167    0.0000 C   0  0  0  0  0  0  0  0  0  0  0  0
    8.9500   -7.8375    0.0000 O   0  0  0  0  0  0  0  0  0  0  0  0
    9.9292   -2.4375    0.0000 O   0  0  0  0  0  0  0  0  0  0  0  0
    1.6417   -7.6167    0.0000 C   0  0  0  0  0  0  0  0  0  0  0  0
    3.5917   -7.2417    0.0000 C   0  0  0  0  0  0  0  0  0  0  0  0
    2.9417   -8.3667    0.0000 C   0  0  0  0  0  0  0  0  0  0  0  0
    1.6417   -5.3667    0.0000 C   0  0  0  0  0  0  0  0  0  0  0  0
    2.9417   -5.3667    0.0000 C   0  0  0  0  0  0  0  0  0  0  0  0
    8.1125   -3.4750    0.0000 O   0  0  0  0  0  0  0  0  0  0  0  0
    8.9375   -5.7417    0.0000 O   0  0  0  0  0  0  0  0  0  0  0  0
    9.5417   -6.7875    0.0000 O   0  0  0  0  0  0  0  0  0  0  0  0
    8.7250   -2.4292    0.0000 O   0  0  0  0  0  0  0  0  0  0  0  0
    4.2417   -8.3667    0.0000 C   0  0  0  0  0  0  0  0  0  0  0  0
    3.5917   -8.7417    0.0000 C   0  0  0  0  0  0  0  0  0  0  0  0
    4.2417   -7.6167    0.0000 C   0  0  0  0  0  0  0  0  0  0  0  0
    4.8917   -8.7417    0.0000 Cl  0  0  0  0  0  0  0  0  0  0  0  0
    2.3042   -4.2417    0.0000 C   0  0  0  0  0  0  0  0  0  0  0  0
    6.5375   -5.7542    0.0000 C   0  0  0  0  0  0  0  0  0  0  0  0
    9.3042   -5.5667    0.0000 C   0  0  0  0  0  0  0  0  0  0  0  0
    4.2542   -1.6167    0.0000 O   0  0  0  0  0  0  0  0  0  0  0  0
   10.5167   -4.8667    0.0000 C   0  0  0  0  0  0  0  0  0  0  0  0
    6.5417   -7.1417    0.0000 C   0  0  0  0  0  0  0  0  0  0  0  0
    2.9667   -3.1167    0.0000 O   0  0  0  0  0  0  0  0  0  0  0  0
    1.6417   -8.3667    0.0000 C   0  0  0  0  0  0  0  0  0  0  0  0
    0.9917   -7.2417    0.0000 C   0  0  0  0  0  0  0  0  0  0  0  0
    3.6125   -1.9917    0.0000 C   0  0  0  0  0  0  0  0  0  0  0  0
    2.9542   -3.8667    0.0000 C   0  0  0  0  0  0  0  0  0  0  0  0
    3.6125   -2.7417    0.0000 C   0  0  0  0  0  0  0  0  0  0  0  0
    5.9292   -6.1042    0.0000 C   0  0  0  0  0  0  0  0  0  0  0  0
    9.9042   -5.9167    0.0000 C   0  0  0  0  0  0  0  0  0  0  0  0
    5.9375   -6.8000    0.0000 C   0  0  0  0  0  0  0  0  0  0  0  0
   10.5167   -5.5667    0.0000 C   0  0  0  0  0  0  0  0  0  0  0  0
    0.3500   -7.6167    0.0000 C   0  0  0  0  0  0  0  0  0  0  0  0
    0.9917   -8.7417    0.0000 C   0  0  0  0  0  0  0  0  0  0  0  0
    0.3500   -8.3667    0.0000 C   0  0  0  0  0  0  0  0  0  0  0  0
  2  6  2  0
  3  7  1  0
  4  5  1  0
  5  1  2  0
  6  3  1  0
  7  4  1  0
  8  1  1  0
  9 15  2  0
 11  2  1  0
 12  1  1  0
 13 16  1  0
 14  3  2  0
 15 14  1  0
 16  8  2  0
 17 10  1  0
 18 28  1  0
 19 17  1  0
 20 10  1  0
 21 10  1  0
 22 12  2  0
 23 11  2  0
 24 17  1  0
 25 19  2  0
 26 19  1  0
 27 20  1  0
 28 21  1  0
 29  6  1  0
 30  5  1  0
 31 12  1  0
 32 11  1  0
 33 34  1  0
 34 26  2  0
 35 25  1  0
 36 33  1  0
 37 18  1  0
 38 13  1  0
 39 14  1  0
 40 46  1  0
 41 15  1  0
 42 16  1  0
 43 47  1  0
 44 24  2  0
 45 24  1  0
 46 48  1  0
 47 37  1  0
 48 43  1  0
 49 51  1  0
 50 39  2  0
 51 42  2  0
 52 50  1  0
 53 45  2  0
 54 44  1  0
 55 53  1  0
  4 13  2  0
 38 49  2  0
  9  2  1  0
 52 41  2  0
 27 18  1  0
 35 33  2  0
 54 55  2  0
M  END
>  <ID>  (445) 


>  <MOLENAME>  (445) 
HYDROXYZINE PAMOATE

>  <therap>  (445) 
anxiolytic, antihistaminic

>  <ref>  (445) 
Am. J. Obstet. Gynecol. (1978), 130(3), 294-9; J. Lab. Clin. Med. (1977), 90(4), 638-44

>  <cas#>  (445) 
10246-75-0, 68-88-2 [hydroxyzine]

>  <source>  (445) 
synthetic

>  <status>  (445) 
USP, JAN

>  <tradename>  (445) 
VISTARIL

>  <SMILES>  (445) 
OCCOCCN1CCN(C(c2ccccc2)c2ccc(Cl)cc2)CC1

>  <standardized_failed>  (445) 
False

$$$$

     RDKit          2D

 21 23  0  0  0  0  0  0  0  0999 V2000
    4.0042   -3.9167    0.0000 N   0  0  0  0  0  0  0  0  0  0  0  0
    6.6042   -6.9917    0.0000 C   0  0  0  0  0  0  0  0  0  0  0  0
    6.4500   -7.8667    0.0000 C   0  0  0  0  0  0  0  0  0  0  0  0
    4.6417   -4.5875    0.0000 C   0  0  0  0  0  0  0  0  0  0  0  0
    4.1792   -5.2750    0.0000 C   0  0  0  0  0  0  0  0  0  0  0  0
    5.8250   -5.6167    0.0000 C   0  0  0  0  0  0  0  0  0  0  0  0
    5.8500   -6.5667    0.0000 O   0  0  0  0  0  0  0  0  0  0  0  0
    5.0417   -5.2750    0.0000 C   0  0  0  0  0  0  0  0  0  0  0  0
    5.6042   -4.7042    0.0000 C   0  0  0  0  0  0  0  0  0  0  0  0
    7.6375   -6.8667    0.0000 O   0  0  0  0  0  0  0  0  0  0  0  0
    5.6375   -8.0125    0.0000 C   0  0  0  0  0  0  0  0  0  0  0  0
    3.7375   -4.8667    0.0000 C   0  0  0  0  0  0  0  0  0  0  0  0
    3.4875   -5.7750    0.0000 C   0  0  0  0  0  0  0  0  0  0  0  0
    4.6042   -3.2792    0.0000 C   0  0  0  0  0  0  0  0  0  0  0  0
    6.8250   -8.5250    0.0000 C   0  0  0  0  0  0  0  0  0  0  0  0
    7.7292   -8.4625    0.0000 O   0  0  0  0  0  0  0  0  0  0  0  0
    5.1042   -7.3750    0.0000 C   0  0  0  0  0  0  0  0  0  0  0  0
    5.3542   -8.7792    0.0000 C   0  0  0  0  0  0  0  0  0  0  0  0
    4.5417   -8.9250    0.0000 C   0  0  0  0  0  0  0  0  0  0  0  0
    4.2917   -7.5125    0.0000 C   0  0  0  0  0  0  0  0  0  0  0  0
    4.0125   -8.2875    0.0000 C   0  0  0  0  0  0  0  0  0  0  0  0
  2  7  1  0
  3  2  1  0
  4  1  1  0
  5  1  1  0
  6  8  1  0
  6  7  1  6
  5  8  1  1
  9  4  1  0
 10  2  2  0
 11  3  1  0
 12  4  1  0
 13  5  1  0
 14  1  1  0
  3 15  1  6
 16 15  1  0
 17 11  2  0
 18 11  1  0
 19 18  2  0
 20 17  1  0
 21 19  1  0
 13 12  1  0
  6  9  1  0
 20 21  2  0
M  END
>  <ID>  (446) 


>  <MOLENAME>  (446) 
HYOSCYAMINE

>  <therap>  (446) 
anticholinergic, analgesic

>  <ref>  (446) 
Anal Profiles Drug Subst Excip 23:153 (1994)

>  <cas#>  (446) 
101-31-5

>  <source>  (446) 
Atropa, Datura and Hyoscyamus spp

>  <status>  (446) 
USP, BAN

>  <tradename>  (446) 
LEVSIN

>  <SMILES>  (446) 
CN1C2CC[C@@H]1C[C@@H](OC(=O)[C@H](CO)c1ccccc1)C2

>  <standardized_failed>  (446) 
False

$$$$

     RDKit          2D

 15 15  0  0  0  0  0  0  0  0999 V2000
    5.4667   -1.8000    0.0000 C   0  0  0  0  0  0  0  0  0  0  0  0
    5.0917   -2.4500    0.0000 C   0  0  0  0  0  0  0  0  0  0  0  0
    4.3417   -2.4500    0.0000 C   0  0  0  0  0  0  0  0  0  0  0  0
    6.2167   -1.8000    0.0000 O   0  0  0  0  0  0  0  0  0  0  0  0
    3.9667   -1.8000    0.0000 C   0  0  0  0  0  0  0  0  0  0  0  0
    3.9667   -3.0917    0.0000 C   0  0  0  0  0  0  0  0  0  0  0  0
    5.0917   -1.1542    0.0000 O   0  0  0  0  0  0  0  0  0  0  0  0
    2.8417   -2.4500    0.0000 C   0  0  0  0  0  0  0  0  0  0  0  0
    3.2167   -3.0917    0.0000 C   0  0  0  0  0  0  0  0  0  0  0  0
    3.2167   -1.8000    0.0000 C   0  0  0  0  0  0  0  0  0  0  0  0
    2.0917   -2.4500    0.0000 C   0  0  0  0  0  0  0  0  0  0  0  0
    5.4667   -3.0917    0.0000 C   0  0  0  0  0  0  0  0  0  0  0  0
    1.7167   -3.0917    0.0000 C   0  0  0  0  0  0  0  0  0  0  0  0
    0.9667   -3.0917    0.0000 C   0  0  0  0  0  0  0  0  0  0  0  0
    2.0917   -3.7417    0.0000 C   0  0  0  0  0  0  0  0  0  0  0  0
  2  1  1  0
  3  2  1  0
  4  1  2  0
  5  3  2  0
  6  3  1  0
  7  1  1  0
  8  9  1  0
  9  6  2  0
 10  5  1  0
 11  8  1  0
 12  2  1  0
 13 11  1  0
 14 13  1  0
 15 13  1  0
  8 10  2  0
M  END
>  <ID>  (447) 


>  <MOLENAME>  (447) 
IBUPROFEN

>  <therap>  (447) 
antiinflammatory

>  <ref>  (447) 
Inflammopharmacology (2009), 17(6), 275-342; J. Pharm. Sci. (1967), 56(12), 1686; JAMA, J. Am. Med. Assoc. (1975), 233(4), 364-5,

>  <cas#>  (447) 
15687-27-1, 58560-75-1 [(+/-) mixture]

>  <source>  (447) 
synthetic; U-18573

>  <status>  (447) 
USP, INN, BAN, JAN

>  <tradename>  (447) 
ADVIL

>  <SMILES>  (447) 
CC(C)Cc1ccc(C(C)C(=O)O)cc1

>  <standardized_failed>  (447) 
False

$$$$

     RDKit          2D

 22 23  0  0  0  0  0  0  0  0999 V2000
    6.0000   -4.1292    0.0000 N   0  0  0  0  0  0  0  0  0  0  0  0
    5.4167   -3.6750    0.0000 C   0  0  0  0  0  0  0  0  0  0  0  0
    6.7292   -3.9750    0.0000 C   0  0  0  0  0  0  0  0  0  0  0  0
    5.4167   -2.9250    0.0000 C   0  0  0  0  0  0  0  0  0  0  0  0
    7.0542   -3.2917    0.0000 C   0  0  0  0  0  0  0  0  0  0  0  0
    6.7292   -2.6250    0.0000 C   0  0  0  0  0  0  0  0  0  0  0  0
    6.0000   -2.4542    0.0000 C   0  0  0  0  0  0  0  0  0  0  0  0
    5.8375   -4.8750    0.0000 C   0  0  0  0  0  0  0  0  0  0  0  0
    6.3917   -5.3792    0.0000 C   0  0  0  0  0  0  0  0  0  0  0  0
    6.8000   -6.6125    0.0000 N   0  0  0  0  0  0  0  0  0  0  0  0
    8.6042   -6.0542    0.0000 Cl  0  0  0  0  0  0  0  0  0  0  0  0
    4.7667   -4.0500    0.0000 C   0  0  0  0  0  0  0  0  0  0  0  0
    7.1542   -4.5875    0.0000 C   0  0  0  0  0  0  0  0  0  0  0  0
    6.2417   -6.1125    0.0000 C   0  0  0  0  0  0  0  0  0  0  0  0
    7.8042   -3.2375    0.0000 C   0  0  0  0  0  0  0  0  0  0  0  0
    4.7667   -2.5500    0.0000 C   0  0  0  0  0  0  0  0  0  0  0  0
    6.6500   -7.3500    0.0000 C   0  0  0  0  0  0  0  0  0  0  0  0
    7.5042   -6.3750    0.0000 C   0  0  0  0  0  0  0  0  0  0  0  0
    4.1167   -3.6750    0.0000 C   0  0  0  0  0  0  0  0  0  0  0  0
    7.9042   -4.5250    0.0000 C   0  0  0  0  0  0  0  0  0  0  0  0
    4.1167   -2.9250    0.0000 C   0  0  0  0  0  0  0  0  0  0  0  0
    8.2292   -3.8500    0.0000 C   0  0  0  0  0  0  0  0  0  0  0  0
  2  1  1  0
  3  1  1  0
  4  2  2  0
  5  3  2  0
  6  5  1  0
  7  4  1  0
  8  1  1  0
  9  8  1  0
 10 14  1  0
 12  2  1  0
 13  3  1  0
 14  9  1  0
 15  5  1  0
 16  4  1  0
 17 10  1  0
 18 10  1  0
 19 12  2  0
 20 13  2  0
 21 19  1  0
 22 20  1  0
  7  6  1  0
 15 22  2  0
 21 16  2  0
M  END
>  <ID>  (448) 


>  <MOLENAME>  (448) 
IMIPRAMINE HYDROCHLORIDE

>  <therap>  (448) 
antidepressant

>  <ref>  (448) 
Comp. Biochem. Physiol., Part C: Toxicol. Pharmacol. (1987), 86(2), 225-32; Nature (1979), 281(5727), 148-50; J. Ment. Sci. (1962), 108, 101-4

>  <cas#>  (448) 
113-52-0, 50-49-7 [imipramine]

>  <source>  (448) 
synthetic

>  <status>  (448) 
USP, INN, BAN, JAN

>  <tradename>  (448) 
TOFRANIL

>  <SMILES>  (448) 
CN(C)CCCN1c2c(cccc2)CCc2c1cccc2

>  <standardized_failed>  (448) 
False

$$$$

     RDKit          2D

 24 26  0  0  0  0  0  0  0  0999 V2000
    3.6750    0.6833    0.0000 S   0  0  0  0  0  0  0  0  0  0  0  0
    3.2542   -2.7000    0.0000 N   0  0  0  0  0  0  0  0  0  0  0  0
    4.1875    0.1458    0.0000 C   0  0  0  0  0  0  0  0  0  0  0  0
    3.4875   -1.9792    0.0000 N   0  0  0  0  0  0  0  0  0  0  0  0
    4.2250   -1.8167    0.0000 C   0  0  0  0  0  0  0  0  0  0  0  0
    2.5417   -2.9292    0.0000 C   0  0  0  0  0  0  0  0  0  0  0  0
    3.9542   -0.5542    0.0000 C   0  0  0  0  0  0  0  0  0  0  0  0
    3.6917   -3.3125    0.0000 C   0  0  0  0  0  0  0  0  0  0  0  0
    2.5417   -3.6792    0.0000 C   0  0  0  0  0  0  0  0  0  0  0  0
    4.4542   -1.1125    0.0000 C   0  0  0  0  0  0  0  0  0  0  0  0
    3.2542   -3.9042    0.0000 C   0  0  0  0  0  0  0  0  0  0  0  0
    4.9250    0.3208    0.0000 C   0  0  0  0  0  0  0  0  0  0  0  0
    4.2125    1.1958    0.0000 O   0  0  0  0  0  0  0  0  0  0  0  0
    3.1375    0.1708    0.0000 O   0  0  0  0  0  0  0  0  0  0  0  0
    3.1625    1.2208    0.0000 N   0  0  0  0  0  0  0  0  0  0  0  0
    4.7250   -2.3792    0.0000 O   0  0  0  0  0  0  0  0  0  0  0  0
    5.1917   -0.9542    0.0000 C   0  0  0  0  0  0  0  0  0  0  0  0
    5.4250   -0.2417    0.0000 C   0  0  0  0  0  0  0  0  0  0  0  0
    5.1542    1.0333    0.0000 Cl  0  0  0  0  0  0  0  0  0  0  0  0
    1.8917   -2.5542    0.0000 C   0  0  0  0  0  0  0  0  0  0  0  0
    1.8917   -4.0542    0.0000 C   0  0  0  0  0  0  0  0  0  0  0  0
    4.4417   -3.3250    0.0000 C   0  0  0  0  0  0  0  0  0  0  0  0
    1.2417   -2.9292    0.0000 C   0  0  0  0  0  0  0  0  0  0  0  0
    1.2417   -3.6792    0.0000 C   0  0  0  0  0  0  0  0  0  0  0  0
  2  4  1  0
  3  1  1  0
  4  5  1  0
  5 10  1  0
  6  2  1  0
  7  3  2  0
  8  2  1  0
  9  6  2  0
 10  7  1  0
 11  8  1  0
 12  3  1  0
 13  1  2  0
 14  1  2  0
 15  1  1  0
 16  5  2  0
 17 18  1  0
 18 12  2  0
 19 12  1  0
 20  6  1  0
 21  9  1  0
 22  8  1  0
 23 20  2  0
 24 23  1  0
 17 10  2  0
 11  9  1  0
 24 21  2  0
M  END
>  <ID>  (449) 


>  <MOLENAME>  (449) 
INDAPAMIDE

>  <therap>  (449) 
diuretic, antihypertensive

>  <ref>  (449) 
Am. J. Cardiol. (1990), 65(17), 11H-27H; Curr. Med. Res. Opin. (1977), 5(Suppl. 1), 3-8; J. Cardiovasc. Pharmacol. (1979), 1(4), 389-94

>  <cas#>  (449) 
26807-65-8

>  <source>  (449) 
synthetic

>  <status>  (449) 
USP, INN, BAN, JAN

>  <tradename>  (449) 
LOZOL

>  <SMILES>  (449) 
CC1Cc2c(cccc2)N1NC(=O)c1ccc(Cl)c(S(N)(=O)=O)c1

>  <standardized_failed>  (449) 
False

$$$$

     RDKit          2D

 25 27  0  0  0  0  0  0  0  0999 V2000
    3.6792   -1.7917    0.0000 N   0  0  0  0  0  0  0  0  0  0  0  0
    4.1167   -2.4042    0.0000 C   0  0  0  0  0  0  0  0  0  0  0  0
    3.6792   -3.0000    0.0000 C   0  0  0  0  0  0  0  0  0  0  0  0
    2.9667   -2.0167    0.0000 C   0  0  0  0  0  0  0  0  0  0  0  0
    2.9667   -2.7667    0.0000 C   0  0  0  0  0  0  0  0  0  0  0  0
    3.9167   -1.0667    0.0000 C   0  0  0  0  0  0  0  0  0  0  0  0
    3.9167   -3.7167    0.0000 C   0  0  0  0  0  0  0  0  0  0  0  0
    2.3167   -1.6417    0.0000 C   0  0  0  0  0  0  0  0  0  0  0  0
    4.6542   -0.9125    0.0000 C   0  0  0  0  0  0  0  0  0  0  0  0
    4.6542   -3.8792    0.0000 C   0  0  0  0  0  0  0  0  0  0  0  0
    2.3167   -3.1417    0.0000 C   0  0  0  0  0  0  0  0  0  0  0  0
    3.4167   -0.5125    0.0000 O   0  0  0  0  0  0  0  0  0  0  0  0
    4.8875   -4.5917    0.0000 O   0  0  0  0  0  0  0  0  0  0  0  0
    5.1542   -1.4667    0.0000 C   0  0  0  0  0  0  0  0  0  0  0  0
    4.8875   -0.2042    0.0000 C   0  0  0  0  0  0  0  0  0  0  0  0
    4.8667   -2.4167    0.0000 C   0  0  0  0  0  0  0  0  0  0  0  0
    1.6750   -2.7667    0.0000 C   0  0  0  0  0  0  0  0  0  0  0  0
    1.6750   -2.0167    0.0000 C   0  0  0  0  0  0  0  0  0  0  0  0
    6.1250   -0.6125    0.0000 C   0  0  0  0  0  0  0  0  0  0  0  0
    5.1542   -3.3167    0.0000 O   0  0  0  0  0  0  0  0  0  0  0  0
    5.8875   -1.3167    0.0000 C   0  0  0  0  0  0  0  0  0  0  0  0
    5.6167   -0.0417    0.0000 C   0  0  0  0  0  0  0  0  0  0  0  0
    6.8667   -0.4667    0.0000 Cl  0  0  0  0  0  0  0  0  0  0  0  0
    1.0167   -3.1500    0.0000 O   0  0  0  0  0  0  0  0  0  0  0  0
    0.3667   -2.7750    0.0000 C   0  0  0  0  0  0  0  0  0  0  0  0
  2  1  1  0
  3  2  2  0
  4  1  1  0
  5  4  2  0
  6  1  1  0
  7  3  1  0
  8  4  1  0
  9  6  1  0
 10  7  1  0
 11  5  1  0
 12  6  2  0
 13 10  2  0
 14  9  2  0
 15  9  1  0
 16  2  1  0
 17 18  1  0
 18  8  2  0
 19 22  1  0
 20 10  1  0
 21 14  1  0
 22 15  2  0
 23 19  1  0
 24 17  1  0
 25 24  1  0
  3  5  1  0
 19 21  2  0
 17 11  2  0
M  END
>  <ID>  (450) 


>  <MOLENAME>  (450) 
INDOMETHACIN

>  <therap>  (450) 
antiinflammatory, antipyretic, analgesic

>  <ref>  (450) 
Biochem. Pharmacol. (1974), 23(10), 1439-50; J. Pathol. Bacteriol. (1965), 90(2), 641-8; Clin. Pharmacol. Ther. (1965), 625-30

>  <cas#>  (450) 
53-86-1

>  <source>  (450) 
synthetic

>  <status>  (450) 
USP, INN, BAN, JAN

>  <tradename>  (450) 
INDOCIN

>  <SMILES>  (450) 
COc1cc2c(cc1)n(C(=O)c1ccc(Cl)cc1)c(C)c2CC(=O)O

>  <standardized_failed>  (450) 
False

$$$$

     RDKit          2D

 21 23  0  0  0  0  0  0  0  0999 V2000
    0.9750   -0.1292    0.0000 N   0  0  0  0  0  0  0  0  0  0  0  0
    0.5375    0.4833    0.0000 C   0  0  0  0  0  0  0  0  0  0  0  0
    0.5375   -0.7250    0.0000 C   0  0  0  0  0  0  0  0  0  0  0  0
   -0.1750    0.2583    0.0000 C   0  0  0  0  0  0  0  0  0  0  0  0
   -0.1750   -0.4917    0.0000 C   0  0  0  0  0  0  0  0  0  0  0  0
    4.3917   -0.4917    0.0000 C   0  0  0  0  0  0  0  0  0  0  0  0
    1.7167   -0.0542    0.0000 C   0  0  0  0  0  0  0  0  0  0  0  0
    0.7667    1.2083    0.0000 O   0  0  0  0  0  0  0  0  0  0  0  0
    3.9750    0.1333    0.0000 C   0  0  0  0  0  0  0  0  0  0  0  0
    3.2250    0.0750    0.0000 C   0  0  0  0  0  0  0  0  0  0  0  0
    5.1417   -0.4292    0.0000 O   0  0  0  0  0  0  0  0  0  0  0  0
    2.0375    0.6250    0.0000 C   0  0  0  0  0  0  0  0  0  0  0  0
    2.1542   -0.6667    0.0000 C   0  0  0  0  0  0  0  0  0  0  0  0
    2.9042   -0.6042    0.0000 C   0  0  0  0  0  0  0  0  0  0  0  0
    2.7875    0.6958    0.0000 C   0  0  0  0  0  0  0  0  0  0  0  0
    4.0667   -1.1667    0.0000 O   0  0  0  0  0  0  0  0  0  0  0  0
   -0.8208    0.6333    0.0000 C   0  0  0  0  0  0  0  0  0  0  0  0
   -0.8208   -0.8667    0.0000 C   0  0  0  0  0  0  0  0  0  0  0  0
    4.3000    0.8083    0.0000 C   0  0  0  0  0  0  0  0  0  0  0  0
   -1.4708    0.2583    0.0000 C   0  0  0  0  0  0  0  0  0  0  0  0
   -1.4708   -0.4917    0.0000 C   0  0  0  0  0  0  0  0  0  0  0  0
  2  1  1  0
  3  1  1  0
  4  2  1  0
  5  3  1  0
  6  9  1  0
  7  1  1  0
  8  2  2  0
  9 10  1  0
 10 14  2  0
 11  6  2  0
 12  7  1  0
 13  7  2  0
 14 13  1  0
 15 12  2  0
 16  6  1  0
 17  4  2  0
 18  5  2  0
 19  9  1  0
 20 17  1  0
 21 18  1  0
  5  4  1  0
 15 10  1  0
 21 20  2  0
M  END
>  <ID>  (451) 


>  <MOLENAME>  (451) 
INDOPROFEN

>  <therap>  (451) 
analgesic, antiinflammatory

>  <ref>  (451) 
Eur. J. Rheumatol. Inflammation (1981), 4(1), 3-10; Drugs Today (1977), 13(5), 200-5; Arzneim. Forsch. (1973), 23(8), 1100-7

>  <cas#>  (451) 
31842-01-0

>  <source>  (451) 
synthetic; K-4274

>  <status>  (451) 
USAN, INN, BAN

>  <tradename>  (451) 
nan

>  <SMILES>  (451) 
CC(C(=O)O)c1ccc(N2Cc3ccccc3C2=O)cc1

>  <standardized_failed>  (451) 
False

$$$$

     RDKit          2D

 35 36  0  0  0  0  0  0  0  0999 V2000
    4.0417   -5.4792    0.0000 C   0  0  0  0  0  0  0  0  0  0  0  0
    4.0417   -4.6542    0.0000 C   0  0  0  0  0  0  0  0  0  0  0  0
    2.6125   -5.4792    0.0000 N   0  0  0  0  0  0  0  0  0  0  0  0
    3.3292   -5.8917    0.0000 C   0  0  0  0  0  0  0  0  0  0  0  0
    3.3292   -4.2417    0.0000 N   0  0  0  0  0  0  0  0  0  0  0  0
    4.7542   -5.8917    0.0000 N   0  0  0  0  0  0  0  0  0  0  0  0
    2.6125   -4.6542    0.0000 C   0  0  0  0  0  0  0  0  0  0  0  0
    4.7542   -4.2417    0.0000 N   0  0  0  0  0  0  0  0  0  0  0  0
    9.7875   -7.1292    0.0000 C   0  0  0  0  0  0  0  0  0  0  0  0
    9.7917   -7.9667    0.0000 N   0  0  0  0  0  0  0  0  0  0  0  0
    5.4667   -5.4792    0.0000 C   0  0  0  0  0  0  0  0  0  0  0  0
    9.0792   -9.2042    0.0000 C   0  0  0  0  0  0  0  0  0  0  0  0
    4.7542   -6.7167    0.0000 C   0  0  0  0  0  0  0  0  0  0  0  0
    9.0792   -8.3792    0.0000 C   0  0  0  0  0  0  0  0  0  0  0  0
    6.9375   -7.8292    0.0000 C   0  0  0  0  0  0  0  0  0  0  0  0
    3.3292   -6.7167    0.0000 O   0  0  0  0  0  0  0  0  0  0  0  0
    9.0625   -6.7167    0.0000 C   0  0  0  0  0  0  0  0  0  0  0  0
    5.4667   -4.6542    0.0000 C   0  0  0  0  0  0  0  0  0  0  0  0
    9.7917   -9.6167    0.0000 O   0  0  0  0  0  0  0  0  0  0  0  0
   10.5000   -6.7167    0.0000 O   0  0  0  0  0  0  0  0  0  0  0  0
    6.1917   -5.8917    0.0000 C   0  0  0  0  0  0  0  0  0  0  0  0
    6.9042   -5.4792    0.0000 N   0  0  0  0  0  0  0  0  0  0  0  0
    6.0292   -8.1417    0.0000 O   0  0  0  0  0  0  0  0  0  0  0  0
    8.3667   -9.6167    0.0000 O   0  0  0  0  0  0  0  0  0  0  0  0
    1.8917   -4.2375    0.0000 N   0  0  0  0  0  0  0  0  0  0  0  0
    4.0417   -7.1292    0.0000 O   0  0  0  0  0  0  0  0  0  0  0  0
    6.9375   -7.0792    0.0000 O   0  0  0  0  0  0  0  0  0  0  0  0
    8.3625   -7.9667    0.0000 C   0  0  0  0  0  0  0  0  0  0  0  0
    8.3417   -7.1292    0.0000 C   0  0  0  0  0  0  0  0  0  0  0  0
    9.0542   -5.8875    0.0000 C   0  0  0  0  0  0  0  0  0  0  0  0
    7.6250   -5.8875    0.0000 C   0  0  0  0  0  0  0  0  0  0  0  0
    7.6042   -8.3042    0.0000 C   0  0  0  0  0  0  0  0  0  0  0  0
    8.3375   -5.4750    0.0000 C   0  0  0  0  0  0  0  0  0  0  0  0
    7.6292   -6.7167    0.0000 C   0  0  0  0  0  0  0  0  0  0  0  0
    3.9500   -9.2792    0.0000 Ca  0  0  0  0  0 15  0  0  0  0  0  0
  2  1  2  0
  3  4  1  0
  4  1  1  0
  5  2  1  0
  6  1  1  0
  7  3  2  0
  8  2  1  0
  9 17  1  0
 10  9  1  0
 11  6  1  0
 12 14  1  0
 13  6  1  0
 14 10  1  0
 15 32  1  0
 16  4  2  0
 17 29  2  0
 18 11  1  0
 19 12  1  0
 20  9  2  0
 21 11  1  0
 22 21  1  0
 23 15  1  0
 24 12  2  0
 25  7  1  0
 26 13  2  0
 27 15  2  0
 14 28  1  6
 29 34  1  0
 30 33  2  0
 31 22  1  0
 32 28  1  0
 33 31  1  0
 34 31  2  0
 18  8  1  0
  5  7  1  0
 17 30  1  0
M  CHG  3  19  -1  23  -1  35   2
M  END
>  <ID>  (452) 


>  <MOLENAME>  (452) 
LEUCOVORIN CALCIUM

>  <therap>  (452) 
antianemic, antidote to folic acid antagonists

>  <ref>  (452) 
J. Clin. Psychiatry (2009), 70(Suppl. 5), 12-17; Clin. Transl. Oncol. (2009), 11(8), 526-533; J. Am. Chem. Soc. (1949), 71, 3852-3

>  <cas#>  (452) 
1492-18-8

>  <source>  (452) 
synthetic; NSC-3590

>  <status>  (452) 
USP, INN, BAN, JAN

>  <tradename>  (452) 
WELLCOVERIN

>  <SMILES>  (452) 
Nc1nc(=O)c2c(NCC(CNc3ccc(C(=O)N[C@@H](CCC(=O)O)C(=O)O)cc3)N2C=O)[nH]1

>  <standardized_failed>  (452) 
False

$$$$

     RDKit          2D

 13 14  0  0  0  0  0  0  0  0999 V2000
    2.2542    0.1958    0.0000 C   0  0  0  0  0  0  0  0  0  0  0  0
    1.6042    0.5708    0.0000 C   0  0  0  0  0  0  0  0  0  0  0  0
    2.2542   -0.5625    0.0000 C   0  0  0  0  0  0  0  0  0  0  0  0
    0.9542    0.1958    0.0000 C   0  0  0  0  0  0  0  0  0  0  0  0
    1.6042   -0.9375    0.0000 C   0  0  0  0  0  0  0  0  0  0  0  0
    0.9542   -0.5625    0.0000 C   0  0  0  0  0  0  0  0  0  0  0  0
    2.9125    0.5708    0.0000 N   0  0  0  0  0  0  0  0  0  0  0  0
    1.6042    1.3208    0.0000 O   0  0  0  0  0  0  0  0  0  0  0  0
    0.3042    0.5708    0.0000 I   0  0  0  0  0  0  0  0  0  0  0  0
    1.6042   -1.6875    0.0000 I   0  0  0  0  0  0  0  0  0  0  0  0
    2.9125   -0.9375    0.0000 C   0  0  0  0  0  0  0  0  0  0  0  0
    3.5667    0.1958    0.0000 C   0  0  0  0  0  0  0  0  0  0  0  0
    3.5667   -0.5625    0.0000 C   0  0  0  0  0  0  0  0  0  0  0  0
  2  1  2  0
  3  1  1  0
  4  2  1  0
  5  3  2  0
  6  5  1  0
  7  1  1  0
  8  2  1  0
  9  4  1  0
 10  5  1  0
 11  3  1  0
 12  7  2  0
 13 12  1  0
 13 11  2  0
  6  4  2  0
M  END
>  <ID>  (453) 


>  <MOLENAME>  (453) 
IODOQUINOL

>  <therap>  (453) 
antiamebic

>  <ref>  (453) 
Int. J. Dermatol. (1977), 16(4), 267-73; J. Am. Chem. Soc. (1936), 58, 1314; Am. J. Med. (1952), 12(4), 440-6

>  <cas#>  (453) 
83-73-8

>  <source>  (453) 
synthetic

>  <status>  (453) 
USP, INN, BAN

>  <tradename>  (453) 
IOQUIN

>  <SMILES>  (453) 
Oc1c2ncccc2c(I)cc1I

>  <standardized_failed>  (453) 
False

$$$$

     RDKit          2D

 16 17  0  0  0  0  0  0  0  0999 V2000
    2.8542    0.0708    0.0000 C   0  0  0  0  0  0  0  0  0  0  0  0
    2.8542   -1.5875    0.0000 N   0  0  0  0  0  0  0  0  0  0  0  0
    3.5750   -0.3417    0.0000 C   0  0  0  0  0  0  0  0  0  0  0  0
    2.1417   -0.3500    0.0000 C   0  0  0  0  0  0  0  0  0  0  0  0
    3.5667   -1.1792    0.0000 C   0  0  0  0  0  0  0  0  0  0  0  0
    2.1417   -1.1750    0.0000 C   0  0  0  0  0  0  0  0  0  0  0  0
    2.8542    0.8958    0.0000 N   0  0  0  0  0  0  0  0  0  0  0  0
    6.6042   -1.7417    0.0000 Cl  0  0  0  0  0  0  0  0  0  0  0  0
    4.2917    0.0750    0.0000 C   0  0  0  0  0  0  0  0  0  0  0  0
    1.4292    0.0625    0.0000 C   0  0  0  0  0  0  0  0  0  0  0  0
    4.2875   -1.5917    0.0000 C   0  0  0  0  0  0  0  0  0  0  0  0
    1.4292   -1.5875    0.0000 C   0  0  0  0  0  0  0  0  0  0  0  0
    5.0125   -0.3417    0.0000 C   0  0  0  0  0  0  0  0  0  0  0  0
    0.7167   -0.3500    0.0000 C   0  0  0  0  0  0  0  0  0  0  0  0
    5.0125   -1.1792    0.0000 C   0  0  0  0  0  0  0  0  0  0  0  0
    0.7167   -1.1750    0.0000 C   0  0  0  0  0  0  0  0  0  0  0  0
  2  6  1  0
  3  1  2  0
  4  1  1  0
  5  3  1  0
  6  4  2  0
  7  1  1  0
  9  3  1  0
 10  4  1  0
 11  5  1  0
 12  6  1  0
 13  9  1  0
 14 10  2  0
 15 13  1  0
 16 14  1  0
  5  2  2  0
 12 16  2  0
 15 11  1  0
M  END
>  <ID>  (454) 


>  <MOLENAME>  (454) 
TACRINE HYDROCHLORIDE

>  <therap>  (454) 
anticholinesterase, cognitive adjuvant, K channel blocker

>  <ref>  (454) 
Clin Toxicol 16:269 (1980); N Engl J Med 315:1241 (1986);; JAMA 280:1777 (1998)

>  <cas#>  (454) 
1684-40-8

>  <source>  (454) 
synthetic; CL-970

>  <status>  (454) 
USP

>  <tradename>  (454) 
COGNEX

>  <SMILES>  (454) 
Nc1c2CCCCc2nc2c1cccc2

>  <standardized_failed>  (454) 
False

$$$$

     RDKit          2D

 10 10  0  0  0  0  0  0  0  0999 V2000
    3.0375   -1.4250    0.0000 C   0  0  0  0  0  0  0  0  0  0  0  0
    3.4167   -0.7792    0.0000 O   0  0  0  0  0  0  0  0  0  0  0  0
    0.7792   -1.4042    0.0000 N   0  0  0  0  0  0  0  0  0  0  0  0
    2.2875   -1.4167    0.0000 C   0  0  0  0  0  0  0  0  0  0  0  0
    3.4042   -2.0792    0.0000 N   0  0  0  0  0  0  0  0  0  0  0  0
    4.1542   -2.0875    0.0000 N   0  0  0  0  0  0  0  0  0  0  0  0
    1.1500   -2.0542    0.0000 C   0  0  0  0  0  0  0  0  0  0  0  0
    1.1667   -0.7542    0.0000 C   0  0  0  0  0  0  0  0  0  0  0  0
    1.9042   -2.0667    0.0000 C   0  0  0  0  0  0  0  0  0  0  0  0
    1.9167   -0.7625    0.0000 C   0  0  0  0  0  0  0  0  0  0  0  0
  2  1  2  0
  3  8  2  0
  4  1  1  0
  5  1  1  0
  6  5  1  0
  7  9  2  0
  8 10  1  0
  9  4  1  0
 10  4  2  0
  7  3  1  0
M  END
>  <ID>  (455) 


>  <MOLENAME>  (455) 
ISONIAZID

>  <therap>  (455) 
antibacterial, tuberculostatic

>  <ref>  (455) 
Lung Biol. Health Dis. (2010), 237, 113-143; Pharmacotherapy (2009), 29(12), 1468-1481; Am. Rev. Respir. Dis. (1969), 99(5), 729-49

>  <cas#>  (455) 
54-85-3

>  <source>  (455) 
synthetic

>  <status>  (455) 
USP, INN, BAN, JAN

>  <tradename>  (455) 
NYDRAZID

>  <SMILES>  (455) 
NNC(=O)c1ccncc1

>  <standardized_failed>  (455) 
False

$$$$

     RDKit          2D

 27 27  0  0  0  0  0  0  0  0999 V2000
    2.6875   -0.5292    0.0000 N   0  0  0  0  0  0  0  0  0  0  0  0
    3.3292   -2.4042    0.0000 C   0  0  0  0  0  0  0  0  0  0  0  0
    2.5792   -2.4042    0.0000 C   0  0  0  0  0  0  0  0  0  0  0  0
    2.6875   -1.2792    0.0000 C   0  0  0  0  0  0  0  0  0  0  0  0
    3.3292   -1.6542    0.0000 C   0  0  0  0  0  0  0  0  0  0  0  0
    3.3292   -3.1542    0.0000 C   0  0  0  0  0  0  0  0  0  0  0  0
    4.0792   -2.4042    0.0000 C   0  0  0  0  0  0  0  0  0  0  0  0
    2.2042   -1.7542    0.0000 O   0  0  0  0  0  0  0  0  0  0  0  0
    3.7667   -0.5542    0.0000 I   0  0  0  0  0  0  0  0  0  0  0  0
    1.9375   -0.5292    0.0000 C   0  0  0  0  0  0  0  0  0  0  0  0
    3.4375   -0.5292    0.0000 C   0  0  0  0  0  0  0  0  0  0  0  0
    2.2042   -3.0542    0.0000 N   0  0  0  0  0  0  0  0  0  0  0  0
    2.6875    0.2208    0.0000 C   0  0  0  0  0  0  0  0  0  0  0  0
    2.6875   -3.5292    0.0000 C   0  0  0  0  0  0  0  0  0  0  0  0
    4.4542   -3.0542    0.0000 C   0  0  0  0  0  0  0  0  0  0  0  0
    3.9792   -3.5292    0.0000 C   0  0  0  0  0  0  0  0  0  0  0  0
    4.4542   -1.7542    0.0000 C   0  0  0  0  0  0  0  0  0  0  0  0
    3.8125   -1.1750    0.0000 C   0  0  0  0  0  0  0  0  0  0  0  0
    3.8125    0.1208    0.0000 C   0  0  0  0  0  0  0  0  0  0  0  0
    1.5625   -1.1792    0.0000 C   0  0  0  0  0  0  0  0  0  0  0  0
    1.5625    0.1208    0.0000 C   0  0  0  0  0  0  0  0  0  0  0  0
    3.9792   -4.2792    0.0000 C   0  0  0  0  0  0  0  0  0  0  0  0
    5.2042   -1.7542    0.0000 C   0  0  0  0  0  0  0  0  0  0  0  0
    5.2042   -3.0542    0.0000 C   0  0  0  0  0  0  0  0  0  0  0  0
    2.6875   -4.2792    0.0000 C   0  0  0  0  0  0  0  0  0  0  0  0
    5.5792   -2.4042    0.0000 C   0  0  0  0  0  0  0  0  0  0  0  0
    3.3292   -4.6542    0.0000 C   0  0  0  0  0  0  0  0  0  0  0  0
  2  5  1  0
  3  2  1  0
  4  1  1  0
  5  4  1  0
  6  2  1  0
  7  2  1  0
  8  3  2  0
 10  1  1  0
 11  1  1  0
 12  3  1  0
 13  1  1  0
 14  6  2  0
 15  7  2  0
 16  6  1  0
 17  7  1  0
 18 11  1  0
 19 11  1  0
 20 10  1  0
 21 10  1  0
 22 16  2  0
 23 17  2  0
 24 15  1  0
 25 14  1  0
 26 24  2  0
 27 22  1  0
 26 23  1  0
 25 27  2  0
M  CHG  2   1   1   9  -1
M  END
>  <ID>  (456) 


>  <MOLENAME>  (456) 
ISOPROPAMIDE IODIDE

>  <therap>  (456) 
anticholinergic

>  <ref>  (456) 
Biochem. J. (1972), 127(5), 86P; Nature (1962), 193, 493-4; Arch. Int. Pharmacodyn. Ther. (1955), 103, 120-8

>  <cas#>  (456) 
71-81-8, 7492-32-2 [isopropamide]

>  <source>  (456) 
synthetic

>  <status>  (456) 
USP, INN, BAN, JAN

>  <tradename>  (456) 
DARBID

>  <SMILES>  (456) 
CC(C)[N+](C)(CCC(C(N)=O)(c1ccccc1)c1ccccc1)C(C)C

>  <standardized_failed>  (456) 
False

$$$$

     RDKit          2D

 16 15  0  0  0  0  0  0  0  0999 V2000
    5.4667   -7.1917    0.0000 C   0  0  0  0  0  0  0  0  0  0  0  0
    4.7167   -7.1917    0.0000 C   0  0  0  0  0  0  0  0  0  0  0  0
    5.8417   -6.5417    0.0000 C   0  0  0  0  0  0  0  0  0  0  0  0
    4.3417   -6.5417    0.0000 C   0  0  0  0  0  0  0  0  0  0  0  0
    5.4667   -5.9042    0.0000 C   0  0  0  0  0  0  0  0  0  0  0  0
    7.7167   -5.8917    0.0000 N   0  0  0  0  0  0  0  0  0  0  0  0
    4.7167   -5.9042    0.0000 C   0  0  0  0  0  0  0  0  0  0  0  0
    6.9667   -5.8917    0.0000 C   0  0  0  0  0  0  0  0  0  0  0  0
    6.5917   -6.5417    0.0000 C   0  0  0  0  0  0  0  0  0  0  0  0
    4.3375   -7.8542    0.0000 O   0  0  0  0  0  0  0  0  0  0  0  0
    3.5917   -6.5417    0.0000 O   0  0  0  0  0  0  0  0  0  0  0  0
    9.0667   -7.1500    0.0000 Cl  0  0  0  0  0  0  0  0  0  0  0  0
    6.9667   -7.1917    0.0000 O   0  0  0  0  0  0  0  0  0  0  0  0
    8.0917   -5.2542    0.0000 C   0  0  0  0  0  0  0  0  0  0  0  0
    8.8417   -5.2542    0.0000 C   0  0  0  0  0  0  0  0  0  0  0  0
    7.7167   -4.6042    0.0000 C   0  0  0  0  0  0  0  0  0  0  0  0
  2  1  2  0
  3  1  1  0
  4  2  1  0
  5  3  2  0
  6  8  1  0
  7  5  1  0
  8  9  1  0
  9  3  1  0
 10  2  1  0
 11  4  1  0
 13  9  1  0
 14  6  1  0
 15 14  1  0
 16 14  1  0
  4  7  2  0
M  END
>  <ID>  (457) 


>  <MOLENAME>  (457) 
ISOPROTERENOL HYDROCHLORIDE

>  <therap>  (457) 
bronchodilator

>  <ref>  (457) 
Am. Heart J. (1976), 92(5), 661-4; Adv. Drug Res. (1970), 5, 197-253; Circulation (1963), 28, 987-93

>  <cas#>  (457) 
51-30-9, 7683-59-2 [isoproterenol]

>  <source>  (457) 
synthetic

>  <status>  (457) 
USP, INN, BAN, JAN

>  <tradename>  (457) 
AEROLONE

>  <SMILES>  (457) 
CC(C)NCC(O)c1ccc(O)c(O)c1

>  <standardized_failed>  (457) 
False

$$$$

     RDKit          2D

 24 23  0  0  0  0  0  0  0  0999 V2000
    2.2167   -3.3375    0.0000 C   0  0  0  0  0  0  0  0  0  0  0  0
    7.2083   -2.9208    0.0000 C   0  0  0  0  0  0  0  0  0  0  0  0
    1.5042   -2.9292    0.0000 C   0  0  0  0  0  0  0  0  0  0  0  0
    7.9208   -3.3333    0.0000 C   0  0  0  0  0  0  0  0  0  0  0  0
    5.0667   -3.3292    0.0000 N   0  0  0  0  0  0  0  0  0  0  0  0
    4.3542   -2.9250    0.0000 N   0  0  0  0  0  0  0  0  0  0  0  0
    2.2167   -4.1667    0.0000 C   0  0  0  0  0  0  0  0  0  0  0  0
    7.2042   -2.0958    0.0000 C   0  0  0  0  0  0  0  0  0  0  0  0
    2.9292   -2.9250    0.0000 C   0  0  0  0  0  0  0  0  0  0  0  0
    6.4958   -3.3333    0.0000 C   0  0  0  0  0  0  0  0  0  0  0  0
    0.7875   -3.3417    0.0000 O   0  0  0  0  0  0  0  0  0  0  0  0
    8.6333   -2.9208    0.0000 O   0  0  0  0  0  0  0  0  0  0  0  0
    7.9208   -4.1583    0.0000 O   0  0  0  0  0  0  0  0  0  0  0  0
    1.5042   -2.1042    0.0000 O   0  0  0  0  0  0  0  0  0  0  0  0
    5.7792   -2.9167    0.0000 C   0  0  0  0  0  0  0  0  0  0  0  0
    3.6458   -3.3375    0.0000 C   0  0  0  0  0  0  0  0  0  0  0  0
    2.9292   -4.5792    0.0000 C   0  0  0  0  0  0  0  0  0  0  0  0
    6.4875   -1.6875    0.0000 C   0  0  0  0  0  0  0  0  0  0  0  0
    3.6458   -4.1667    0.0000 C   0  0  0  0  0  0  0  0  0  0  0  0
    5.7792   -2.1000    0.0000 C   0  0  0  0  0  0  0  0  0  0  0  0
    7.9208   -1.6833    0.0000 O   0  0  0  0  0  0  0  0  0  0  0  0
    1.5000   -4.5792    0.0000 O   0  0  0  0  0  0  0  0  0  0  0  0
    9.9917   -2.8667    0.0000 Na  0  0  0  0  0 15  0  0  0  0  0  0
   -0.8458   -3.9917    0.0000 Na  0  0  0  0  0 15  0  0  0  0  0  0
  2 10  2  0
  3  1  1  0
  4  2  1  0
  5  6  2  0
  6 16  1  0
  7  1  2  0
  8  2  1  0
  9  1  1  0
 10 15  1  0
 11  3  1  0
 12  4  1  0
 13  4  2  0
 14  3  2  0
 15  5  1  0
 16  9  2  0
 17  7  1  0
 18 20  1  0
 19 16  1  0
 20 15  2  0
 21  8  1  0
 22  7  1  0
 19 17  2  0
 18  8  2  0
M  CHG  4  11  -1  12  -1  23   1  24   1
M  END
>  <ID>  (458) 


>  <MOLENAME>  (458) 
OLSALAZINE SODIUM

>  <therap>  (458) 
antiinflammatory

>  <ref>  (458) 
Am. J. Gastroenterol. (1985), 80(3), 203-5; Clin. Pharm. (1992), 11(6), 514-28; Am. J. Gastroenterol. (1985), 80(3), 203-5

>  <cas#>  (458) 
6054-98-4

>  <source>  (458) 
synthetic; CJ-91B

>  <status>  (458) 
USAN, INN, BAN

>  <tradename>  (458) 
AZODISAL SODIUM

>  <SMILES>  (458) 
O=C(O)c1cc(/N=N/c2cc(C(=O)O)c(O)cc2)ccc1O

>  <standardized_failed>  (458) 
False

$$$$

     RDKit          2D

 23 23  0  0  0  0  0  0  0  0999 V2000
    6.8917   -6.8292    0.0000 N   0  0  0  0  0  0  0  0  0  0  0  0
    6.0667   -6.8292    0.0000 C   0  0  0  0  0  0  0  0  0  0  0  0
    5.6542   -7.5417    0.0000 C   0  0  0  0  0  0  0  0  0  0  0  0
    4.8292   -7.5417    0.0000 C   0  0  0  0  0  0  0  0  0  0  0  0
    4.4167   -6.8292    0.0000 C   0  0  0  0  0  0  0  0  0  0  0  0
    4.4167   -8.2542    0.0000 C   0  0  0  0  0  0  0  0  0  0  0  0
    6.0667   -5.4042    0.0000 O   0  0  0  0  0  0  0  0  0  0  0  0
    3.1750   -7.5417    0.0000 C   0  0  0  0  0  0  0  0  0  0  0  0
    6.0667   -8.2542    0.0000 O   0  0  0  0  0  0  0  0  0  0  0  0
    3.5875   -6.8292    0.0000 C   0  0  0  0  0  0  0  0  0  0  0  0
    3.5875   -8.2542    0.0000 C   0  0  0  0  0  0  0  0  0  0  0  0
    6.8917   -5.4042    0.0000 C   0  0  0  0  0  0  0  0  0  0  0  0
    5.6542   -4.6917    0.0000 C   0  0  0  0  0  0  0  0  0  0  0  0
    8.0750   -7.6167    0.0000 Cl  0  0  0  0  0  0  0  0  0  0  0  0
    7.3042   -6.1167    0.0000 C   0  0  0  0  0  0  0  0  0  0  0  0
    2.3500   -7.5417    0.0000 O   0  0  0  0  0  0  0  0  0  0  0  0
    5.6542   -6.1167    0.0000 C   0  0  0  0  0  0  0  0  0  0  0  0
    4.8250   -4.6917    0.0000 C   0  0  0  0  0  0  0  0  0  0  0  0
    6.0667   -3.9750    0.0000 C   0  0  0  0  0  0  0  0  0  0  0  0
    8.1375   -6.1167    0.0000 C   0  0  0  0  0  0  0  0  0  0  0  0
    5.6542   -3.2542    0.0000 C   0  0  0  0  0  0  0  0  0  0  0  0
    4.4125   -3.9792    0.0000 C   0  0  0  0  0  0  0  0  0  0  0  0
    4.8250   -3.2542    0.0000 C   0  0  0  0  0  0  0  0  0  0  0  0
  2  1  1  0
  3  2  1  0
  4  3  1  0
  5  4  2  0
  6  4  1  0
  7 12  1  0
  8 11  1  0
  3  9  1  6
 10  5  1  0
 11  6  2  0
 12 15  1  0
 13  7  1  0
 15  1  1  0
 16  8  1  0
  2 17  1  0
 18 13  2  0
 19 13  1  0
 15 20  1  0
 21 19  2  0
 22 18  1  0
 23 22  2  0
  8 10  2  0
 21 23  1  0
M  END
>  <ID>  (459) 


>  <MOLENAME>  (459) 
ISOXSUPRINE HYDROCHLORIDE

>  <therap>  (459) 
vasodilator

>  <ref>  (459) 
Mol. Pharmacol. (1976), 12(1), 16-31; Br. J. Pharmacol. (1972), 45(3), 510-18; Recl. Trav. Chim. Pays-Bas Belg. (1959), 78, 22-42

>  <cas#>  (459) 
579-56-6, 395-28-8 [isoxsuprine]

>  <source>  (459) 
synthetic

>  <status>  (459) 
USP, INN, BAN, JAN

>  <tradename>  (459) 
VASODILAN

>  <SMILES>  (459) 
CC(COc1ccccc1)NC(C)[C@H](O)c1ccc(O)cc1

>  <standardized_failed>  (459) 
False

$$$$

     RDKit          2D

 38 39  0  0  0  0  0  0  0  0999 V2000
   -2.4083   -5.4542    0.0000 C   0  0  0  0  0  0  0  0  0  0  0  0
   -1.5875   -1.7667    0.0000 C   0  0  0  0  0  0  0  0  0  0  0  0
    2.6292   -2.9792    0.0000 S   0  0  0  0  0  0  0  0  0  0  0  0
   -1.1708   -4.7417    0.0000 C   0  0  0  0  0  0  0  0  0  0  0  0
   -1.1708   -3.3125    0.0000 C   0  0  0  0  0  0  0  0  0  0  0  0
   -2.3000   -1.3542    0.0000 C   0  0  0  0  0  0  0  0  0  0  0  0
   -2.8208   -6.1667    0.0000 C   0  0  0  0  0  0  0  0  0  0  0  0
   -1.5833   -4.0292    0.0000 C   0  0  0  0  0  0  0  0  0  0  0  0
   -2.3000   -0.5250    0.0000 C   0  0  0  0  0  0  0  0  0  0  0  0
   -3.6458   -6.1667    0.0000 C   0  0  0  0  0  0  0  0  0  0  0  0
   -0.8708   -1.3542    0.0000 O   0  0  0  0  0  0  0  0  0  0  0  0
   -2.8208   -4.7375    0.0000 O   0  0  0  0  0  0  0  0  0  0  0  0
   -1.5875   -2.5917    0.0000 O   0  0  0  0  0  0  0  0  0  0  0  0
   -1.5833   -5.4542    0.0000 O   0  0  0  0  0  0  0  0  0  0  0  0
   -1.5875   -0.1125    0.0000 C   0  0  0  0  0  0  0  0  0  0  0  0
   -4.0583   -5.4542    0.0000 C   0  0  0  0  0  0  0  0  0  0  0  0
   -3.6458   -4.7375    0.0000 C   0  0  0  0  0  0  0  0  0  0  0  0
   -0.8708   -0.5250    0.0000 C   0  0  0  0  0  0  0  0  0  0  0  0
   -0.3375   -4.7417    0.0000 C   0  0  0  0  0  0  0  0  0  0  0  0
   -0.3375   -3.3125    0.0000 C   0  0  0  0  0  0  0  0  0  0  0  0
    0.0750   -4.0292    0.0000 C   0  0  0  0  0  0  0  0  0  0  0  0
    2.9875   -2.3500    0.0000 O   0  0  0  0  0  0  0  0  0  0  0  0
    1.9917   -2.6167    0.0000 O   0  0  0  0  0  0  0  0  0  0  0  0
    3.2542   -3.3500    0.0000 O   0  0  0  0  0  0  0  0  0  0  0  0
    2.2542   -3.5667    0.0000 O   0  0  0  0  0  0  0  0  0  0  0  0
   -3.0208   -0.1042    0.0000 N   0  0  0  0  0  0  0  0  0  0  0  0
   -3.0208   -1.7750    0.0000 O   0  0  0  0  0  0  0  0  0  0  0  0
   -2.3958   -6.8875    0.0000 O   0  0  0  0  0  0  0  0  0  0  0  0
   -2.4083   -4.0292    0.0000 O   0  0  0  0  0  0  0  0  0  0  0  0
   -4.0708   -6.8875    0.0000 O   0  0  0  0  0  0  0  0  0  0  0  0
    0.0792   -2.5917    0.0000 N   0  0  0  0  0  0  0  0  0  0  0  0
    0.0875   -5.4625    0.0000 N   0  0  0  0  0  0  0  0  0  0  0  0
   -1.5875    0.7125    0.0000 O   0  0  0  0  0  0  0  0  0  0  0  0
   -4.8833   -5.4542    0.0000 O   0  0  0  0  0  0  0  0  0  0  0  0
   -4.0708   -4.0167    0.0000 C   0  0  0  0  0  0  0  0  0  0  0  0
   -0.1500   -0.1042    0.0000 C   0  0  0  0  0  0  0  0  0  0  0  0
   -4.8958   -4.0167    0.0000 N   0  0  0  0  0  0  0  0  0  0  0  0
   -0.1583    0.7250    0.0000 O   0  0  0  0  0  0  0  0  0  0  0  0
  2 13  1  6
 14  4  1  0
  5  8  1  0
  6  2  1  0
  7  1  1  0
  8  4  1  0
  9  6  1  0
 10  7  1  0
 11  2  1  0
 12  1  1  0
  5 13  1  1
  1 14  1  6
 15 18  1  0
 16 17  1  0
 17 12  1  0
 18 11  1  0
 19  4  1  0
 20 21  1  0
 21 19  1  0
 22  3  2  0
 23  3  2  0
 24  3  1  0
 25  3  1  0
  9 26  1  1
  6 27  1  6
  7 28  1  6
  8 29  1  6
 10 30  1  1
 20 31  1  6
 19 32  1  6
 15 33  1  6
 16 34  1  6
 17 35  1  1
 18 36  1  1
 37 35  1  0
 38 36  1  0
 10 16  1  0
  5 20  1  0
  9 15  1  0
M  END
>  <ID>  (460) 


>  <MOLENAME>  (460) 
KANAMYCIN A SULFATE

>  <therap>  (460) 
antibacterial

>  <ref>  (460) 
Anti-Infect. Agents Med. Chem. (2007), 6(2), 107-117; Bull. Chem. Soc. Jpn. (1959), 32, 81-4; J. Am. Chem. Soc. (1958), 80, 4115

>  <cas#>  (460) 
25389-94-0, 133-92-6 [replaced], 59-01-8 [kanamycin]

>  <source>  (460) 
Streptomyces kanamyceticus

>  <status>  (460) 
USP, INN, BAN, JAN

>  <tradename>  (460) 
KANTREX

>  <SMILES>  (460) 
NC[C@H]1O[C@H](OC2[C@@H](N)C[C@@H](N)[C@H](O[C@H]3O[C@H](CO)[C@@H](O)[C@H](N)[C@H]3O)[C@H]2O)[C@H](O)[C@@H](O)[C@@H]1O

>  <standardized_failed>  (460) 
False

$$$$

     RDKit          2D

 36 40  0  0  0  0  0  0  0  0999 V2000
    2.1875   -6.5792    0.0000 C   0  0  0  0  0  0  0  0  0  0  0  0
    1.9167   -5.8125    0.0000 C   0  0  0  0  0  0  0  0  0  0  0  0
    2.9667   -6.3042    0.0000 O   0  0  0  0  0  0  0  0  0  0  0  0
    9.5667   -8.1792    0.0000 N   0  0  0  0  0  0  0  0  0  0  0  0
    2.2042   -7.4042    0.0000 O   0  0  0  0  0  0  0  0  0  0  0  0
    7.9625   -7.8292    0.0000 N   0  0  0  0  0  0  0  0  0  0  0  0
    2.3125   -5.0875    0.0000 C   0  0  0  0  0  0  0  0  0  0  0  0
    0.6875   -6.9667    0.0000 N   0  0  0  0  0  0  0  0  0  0  0  0
   -0.6333   -7.1292    0.0000 N   0  0  0  0  0  0  0  0  0  0  0  0
   10.3875   -8.3667    0.0000 C   0  0  0  0  0  0  0  0  0  0  0  0
    1.5000   -7.0375    0.0000 C   0  0  0  0  0  0  0  0  0  0  0  0
    1.0917   -5.8292    0.0000 C   0  0  0  0  0  0  0  0  0  0  0  0
    0.0875   -7.5292    0.0000 C   0  0  0  0  0  0  0  0  0  0  0  0
    1.8792   -4.3792    0.0000 C   0  0  0  0  0  0  0  0  0  0  0  0
    7.1542   -7.6667    0.0000 C   0  0  0  0  0  0  0  0  0  0  0  0
    3.4667   -6.9667    0.0000 C   0  0  0  0  0  0  0  0  0  0  0  0
   -0.4833   -6.3167    0.0000 C   0  0  0  0  0  0  0  0  0  0  0  0
    9.0250   -8.7917    0.0000 C   0  0  0  0  0  0  0  0  0  0  0  0
    9.3167   -7.3917    0.0000 C   0  0  0  0  0  0  0  0  0  0  0  0
    8.2125   -8.6167    0.0000 C   0  0  0  0  0  0  0  0  0  0  0  0
    8.5167   -7.2167    0.0000 C   0  0  0  0  0  0  0  0  0  0  0  0
    0.3292   -6.2167    0.0000 C   0  0  0  0  0  0  0  0  0  0  0  0
   10.6375   -9.1542    0.0000 O   0  0  0  0  0  0  0  0  0  0  0  0
    2.9917   -7.6375    0.0000 C   0  0  0  0  0  0  0  0  0  0  0  0
    6.7625   -8.3792    0.0000 C   0  0  0  0  0  0  0  0  0  0  0  0
    6.7500   -6.9542    0.0000 C   0  0  0  0  0  0  0  0  0  0  0  0
    1.0625   -4.4042    0.0000 C   0  0  0  0  0  0  0  0  0  0  0  0
    3.1250   -5.0667    0.0000 Cl  0  0  0  0  0  0  0  0  0  0  0  0
    4.6917   -7.6667    0.0000 O   0  0  0  0  0  0  0  0  0  0  0  0
    0.6667   -5.1417    0.0000 C   0  0  0  0  0  0  0  0  0  0  0  0
    5.5167   -7.6625    0.0000 C   0  0  0  0  0  0  0  0  0  0  0  0
    4.2875   -6.9667    0.0000 C   0  0  0  0  0  0  0  0  0  0  0  0
    5.9292   -8.3792    0.0000 C   0  0  0  0  0  0  0  0  0  0  0  0
    5.9250   -6.9542    0.0000 C   0  0  0  0  0  0  0  0  0  0  0  0
    0.6292   -3.6917    0.0000 Cl  0  0  0  0  0  0  0  0  0  0  0  0
   10.9417   -7.7542    0.0000 C   0  0  0  0  0  0  0  0  0  0  0  0
  2  1  1  0
  3  1  1  0
  4 19  1  0
  5  1  1  0
  6 15  1  0
  7  2  2  0
  8 11  1  0
  9 13  2  0
 10  4  1  0
  1 11  1  1
 12  2  1  0
 13  8  1  0
 14  7  1  0
 15 26  2  0
 16  3  1  0
 17 22  2  0
 18 20  1  0
 19 21  1  0
 20  6  1  0
 21  6  1  0
 22  8  1  0
 23 10  2  0
 24  5  1  0
 25 33  2  0
 26 34  1  0
 27 30  1  0
 28  7  1  0
 29 32  1  0
 30 12  2  0
 31 29  1  0
 32 16  1  0
 33 31  1  0
 34 31  2  0
 35 27  1  0
 36 10  1  0
 16 24  1  0
  9 17  1  0
 27 14  2  0
 15 25  1  0
  4 18  1  0
M  END
>  <ID>  (461) 


>  <MOLENAME>  (461) 
KETOCONAZOLE

>  <therap>  (461) 
antifungal, PXR/SRC1 & CAR/SRC1 inhibitor

>  <ref>  (461) 
Oncogene 26:258 (2007)

>  <cas#>  (461) 
65277-42-1

>  <source>  (461) 
synthetic; R-41400

>  <status>  (461) 
USP, INN, BAN, JAN

>  <tradename>  (461) 
KETOZOLE

>  <SMILES>  (461) 
CC(=O)N1CCN(c2ccc(OCC3CO[C@](Cn4ccnc4)(c4c(Cl)cc(Cl)cc4)O3)cc2)CC1

>  <standardized_failed>  (461) 
False

$$$$

     RDKit          2D

 23 24  0  0  0  0  0  0  0  0999 V2000
    7.6292   -4.8542    0.0000 C   0  0  0  0  0  0  0  0  0  0  0  0
    5.9042   -6.9792    0.0000 C   0  0  0  0  0  0  0  0  0  0  0  0
    7.7167   -5.6792    0.0000 C   0  0  0  0  0  0  0  0  0  0  0  0
    6.9667   -6.0167    0.0000 C   0  0  0  0  0  0  0  0  0  0  0  0
    5.6500   -7.7625    0.0000 C   0  0  0  0  0  0  0  0  0  0  0  0
    4.8417   -7.9375    0.0000 C   0  0  0  0  0  0  0  0  0  0  0  0
    6.8167   -4.6917    0.0000 O   0  0  0  0  0  0  0  0  0  0  0  0
    5.3500   -6.3667    0.0000 O   0  0  0  0  0  0  0  0  0  0  0  0
    6.7167   -6.8042    0.0000 O   0  0  0  0  0  0  0  0  0  0  0  0
    4.2917   -7.3250    0.0000 C   0  0  0  0  0  0  0  0  0  0  0  0
    6.4167   -5.4042    0.0000 C   0  0  0  0  0  0  0  0  0  0  0  0
    4.5500   -6.5417    0.0000 C   0  0  0  0  0  0  0  0  0  0  0  0
    7.5667   -4.0292    0.0000 O   0  0  0  0  0  0  0  0  0  0  0  0
    8.4375   -6.0917    0.0000 O   0  0  0  0  0  0  0  0  0  0  0  0
    6.2042   -8.3750    0.0000 O   0  0  0  0  0  0  0  0  0  0  0  0
    4.5917   -8.7292    0.0000 O   0  0  0  0  0  0  0  0  0  0  0  0
    8.3667   -5.2125    0.0000 C   0  0  0  0  0  0  0  0  0  0  0  0
    3.4750   -7.4917    0.0000 O   0  0  0  0  0  0  0  0  0  0  0  0
    5.5917   -5.4917    0.0000 C   0  0  0  0  0  0  0  0  0  0  0  0
    4.0000   -5.9250    0.0000 C   0  0  0  0  0  0  0  0  0  0  0  0
    9.0542   -4.7417    0.0000 O   0  0  0  0  0  0  0  0  0  0  0  0
    5.1042   -4.8167    0.0000 O   0  0  0  0  0  0  0  0  0  0  0  0
    3.1917   -6.0875    0.0000 O   0  0  0  0  0  0  0  0  0  0  0  0
  2  9  1  1
  3  1  1  0
  4  3  1  0
  5  2  1  0
  6  5  1  0
  7  1  1  0
  8  2  1  0
  4  9  1  6
 10 12  1  0
 11  7  1  0
 12  8  1  0
  1 13  1  1
  3 14  1  1
  5 15  1  6
  6 16  1  1
  1 17  1  0
 10 18  1  1
 11 19  1  1
 12 20  1  1
 21 17  1  0
 22 19  1  0
 23 20  1  0
  4 11  1  0
  6 10  1  0
M  END
>  <ID>  (462) 


>  <MOLENAME>  (462) 
LACTULOSE

>  <therap>  (462) 
laxative

>  <ref>  (462) 
Gut 13:859 (1972); Carcinogenesis 18:517 (1997); Evid Based Nurs 14:61 (2011)

>  <cas#>  (462) 
4618-18-2

>  <source>  (462) 
synthetic

>  <status>  (462) 
USP, INN, BAN, JAN

>  <tradename>  (462) 
ACILAC

>  <SMILES>  (462) 
OC[C@H]1O[C@](O)(CO)[C@@H](O)[C@@H]1O[C@@H]1O[C@H](CO)[C@H](O)[C@H](O)[C@H]1O

>  <standardized_failed>  (462) 
False

$$$$

     RDKit          2D

 28 28  0  0  0  0  0  0  0  0999 V2000
    7.5500   -5.1917    0.0000 C   0  0  0  0  0  0  0  0  0  0  0  0
    8.3792   -5.1917    0.0000 O   0  0  0  0  0  0  0  0  0  0  0  0
    7.1375   -5.9042    0.0000 C   0  0  0  0  0  0  0  0  0  0  0  0
    8.3792   -6.6250    0.0000 C   0  0  0  0  0  0  0  0  0  0  0  0
    7.5500   -6.6250    0.0000 C   0  0  0  0  0  0  0  0  0  0  0  0
    7.1250   -4.4750    0.0000 C   0  0  0  0  0  0  0  0  0  0  0  0
    5.8792   -3.7792    0.0000 C   0  0  0  0  0  0  0  0  0  0  0  0
    6.2917   -4.4875    0.0000 N   0  0  0  0  0  0  0  0  0  0  0  0
    8.7917   -5.9042    0.0000 C   0  0  0  0  0  0  0  0  0  0  0  0
    4.6375   -3.0750    0.0000 N   0  0  0  0  0  0  0  0  0  0  0  0
    5.0500   -3.7875    0.0000 C   0  0  0  0  0  0  0  0  0  0  0  0
    3.8292   -3.2500    0.0000 C   0  0  0  0  0  0  0  0  0  0  0  0
    6.2875   -3.0542    0.0000 O   0  0  0  0  0  0  0  0  0  0  0  0
    4.4917   -4.4042    0.0000 C   0  0  0  0  0  0  0  0  0  0  0  0
    7.5292   -3.7500    0.0000 C   0  0  0  0  0  0  0  0  0  0  0  0
    9.6167   -5.9042    0.0000 S   0  0  0  0  0  0  0  0  0  0  0  0
    3.7500   -4.0667    0.0000 C   0  0  0  0  0  0  0  0  0  0  0  0
    8.8000   -7.3417    0.0000 O   0  0  0  0  0  0  0  0  0  0  0  0
    6.3125   -5.9042    0.0000 O   0  0  0  0  0  0  0  0  0  0  0  0
    7.1292   -7.3417    0.0000 O   0  0  0  0  0  0  0  0  0  0  0  0
    4.9667   -2.3042    0.0000 C   0  0  0  0  0  0  0  0  0  0  0  0
    2.9542   -2.4667    0.0000 Cl  0  0  0  0  0  0  0  0  0  0  0  0
    7.1167   -3.0417    0.0000 O   0  0  0  0  0  0  0  0  0  0  0  0
    3.0292   -4.4917    0.0000 C   0  0  0  0  0  0  0  0  0  0  0  0
   10.0292   -5.1917    0.0000 C   0  0  0  0  0  0  0  0  0  0  0  0
    8.3625   -3.7375    0.0000 C   0  0  0  0  0  0  0  0  0  0  0  0
    3.0292   -5.3167    0.0000 C   0  0  0  0  0  0  0  0  0  0  0  0
    2.3167   -5.7292    0.0000 C   0  0  0  0  0  0  0  0  0  0  0  0
  1  2  1  1
  3  1  1  0
  4  5  1  0
  5  3  1  0
  1  6  1  0
  7  8  1  0
  6  8  1  1
  9  2  1  0
 10 11  1  0
 11  7  1  6
 12 10  1  0
 13  7  2  0
 14 11  1  0
 15  6  1  0
  9 16  1  6
 17 14  1  0
  4 18  1  6
  3 19  1  1
  5 20  1  1
 21 10  1  0
 15 23  1  0
 17 24  1  1
 25 16  1  0
 15 26  1  1
 27 24  1  0
 28 27  1  0
  4  9  1  0
 17 12  1  0
M  END
>  <ID>  (463) 


>  <MOLENAME>  (463) 
LINCOMYCIN HYDROCHLORIDE

>  <therap>  (463) 
antibacterial

>  <ref>  (463) 
Toxicol Appl Pharmacol 6:476 (1964); Gazz Med Ital 138:41 (1979)

>  <cas#>  (463) 
7179-49-9, 859-18-7 [anhydrous], 154-21-2 [lincomycin]

>  <source>  (463) 
Streptomyces lincolnensis, S espinosus, S variabilis; U-10149

>  <status>  (463) 
USAN, INN, BAN

>  <tradename>  (463) 
LINCOCIN

>  <SMILES>  (463) 
CCC[C@@H]1C[C@@H](C(=O)N[C@@H]([C@H](C)O)[C@H]2O[C@H](SC)[C@H](O)[C@@H](O)[C@H]2O)N(C)C1

>  <standardized_failed>  (463) 
False

$$$$

     RDKit          2D

 43 47  0  0  0  0  0  0  0  0999 V2000
    4.7417   -3.6708    0.0000 N   0  0  0  0  0  0  0  0  0  0  0  0
    5.2333   -4.3375    0.0000 C   0  0  0  0  0  0  0  0  0  0  0  0
    7.0792   -0.8875    0.0000 N   0  0  0  0  0  0  0  0  0  0  0  0
    7.8958   -0.7875    0.0000 C   0  0  0  0  0  0  0  0  0  0  0  0
    4.7500   -5.0083    0.0000 N   0  0  0  0  0  0  0  0  0  0  0  0
    3.9583   -3.9333    0.0000 C   0  0  0  0  0  0  0  0  0  0  0  0
    3.2417   -3.5208    0.0000 C   0  0  0  0  0  0  0  0  0  0  0  0
    8.0625    0.0167    0.0000 N   0  0  0  0  0  0  0  0  0  0  0  0
    1.8167   -1.0625    0.0000 C   0  0  0  0  0  0  0  0  0  0  0  0
    6.7333   -0.1375    0.0000 C   0  0  0  0  0  0  0  0  0  0  0  0
    0.9208   -0.0750    0.0000 C   0  0  0  0  0  0  0  0  0  0  0  0
    3.9625   -4.7583    0.0000 C   0  0  0  0  0  0  0  0  0  0  0  0
    1.7250   -0.2458    0.0000 O   0  0  0  0  0  0  0  0  0  0  0  0
    0.5125   -0.7875    0.0000 O   0  0  0  0  0  0  0  0  0  0  0  0
    1.0667   -1.3958    0.0000 C   0  0  0  0  0  0  0  0  0  0  0  0
    8.4542   -1.3958    0.0000 C   0  0  0  0  0  0  0  0  0  0  0  0
    3.2417   -2.7000    0.0000 C   0  0  0  0  0  0  0  0  0  0  0  0
    7.3417    0.4208    0.0000 O   0  0  0  0  0  0  0  0  0  0  0  0
    8.2083   -2.1792    0.0000 C   0  0  0  0  0  0  0  0  0  0  0  0
    4.9917   -2.8875    0.0000 C   0  0  0  0  0  0  0  0  0  0  0  0
    2.5292   -2.2917    0.0000 O   0  0  0  0  0  0  0  0  0  0  0  0
    2.5292   -1.4667    0.0000 C   0  0  0  0  0  0  0  0  0  0  0  0
    7.4083   -2.3583    0.0000 C   0  0  0  0  0  0  0  0  0  0  0  0
    5.9250    0.0250    0.0000 O   0  0  0  0  0  0  0  0  0  0  0  0
    0.5833    0.6750    0.0000 O   0  0  0  0  0  0  0  0  0  0  0  0
    3.9542   -2.2833    0.0000 O   0  0  0  0  0  0  0  0  0  0  0  0
    6.0542   -4.3375    0.0000 O   0  0  0  0  0  0  0  0  0  0  0  0
    7.1542   -3.1458    0.0000 C   0  0  0  0  0  0  0  0  0  0  0  0
    6.8458   -1.7458    0.0000 C   0  0  0  0  0  0  0  0  0  0  0  0
    5.7958   -2.7083    0.0000 C   0  0  0  0  0  0  0  0  0  0  0  0
    2.5292   -3.9375    0.0000 C   0  0  0  0  0  0  0  0  0  0  0  0
    6.3500   -3.3208    0.0000 C   0  0  0  0  0  0  0  0  0  0  0  0
    6.0417   -1.9250    0.0000 C   0  0  0  0  0  0  0  0  0  0  0  0
    3.2417   -5.1750    0.0000 C   0  0  0  0  0  0  0  0  0  0  0  0
    4.3417    0.0625    0.0000 K   0  0  0  0  0 15  0  0  0  0  0  0
    0.8958   -2.2042    0.0000 C   0  0  0  0  0  0  0  0  0  0  0  0
    9.2583   -1.2167    0.0000 C   0  0  0  0  0  0  0  0  0  0  0  0
    8.7625   -2.7917    0.0000 C   0  0  0  0  0  0  0  0  0  0  0  0
    2.5292   -4.7625    0.0000 C   0  0  0  0  0  0  0  0  0  0  0  0
    6.4667   -5.0500    0.0000 C   0  0  0  0  0  0  0  0  0  0  0  0
    9.5708   -2.6125    0.0000 C   0  0  0  0  0  0  0  0  0  0  0  0
    9.8208   -1.8250    0.0000 C   0  0  0  0  0  0  0  0  0  0  0  0
    7.2875   -5.0500    0.0000 C   0  0  0  0  0  0  0  0  0  0  0  0
  2  1  1  0
  3  4  1  0
  4 16  1  0
  5  2  2  0
  6  1  1  0
  7  6  2  0
  8  4  2  0
  9 22  1  0
 10  3  2  0
 11 13  1  0
 12  6  1  0
 13  9  1  0
 14 15  1  0
 15  9  2  0
 16 19  1  0
 17  7  1  0
 18  8  1  0
 19 23  1  0
 20  1  1  0
 21 17  1  0
 22 21  1  0
 23 28  2  0
 24 10  1  0
 25 11  2  0
 26 17  2  0
 27  2  1  0
 28 32  1  0
 29 33  2  0
 30 20  1  0
 31  7  1  0
 32 30  2  0
 33 30  1  0
 34 12  2  0
 36 15  1  0
 37 16  2  0
 38 19  2  0
 39 34  1  0
 40 27  1  0
 41 38  1  0
 42 37  1  0
 43 40  1  0
  5 12  1  0
 29 23  1  0
 39 31  2  0
 14 11  1  0
 42 41  2  0
 10 18  1  0
M  CHG  2  24  -1  35   1
M  END
>  <ID>  (464) 


>  <MOLENAME>  (464) 
AZILSARTAN KAMEDOXOMIL

>  <therap>  (464) 
antihypertensive, AT1 angiotensin II antagonist

>  <ref>  (464) 
Formulary 45:342 (2010); J Hypertension 28:e442 (2010); J Clin Hypertension 13:81 (2011)

>  <cas#>  (464) 
863031-24-7

>  <source>  (464) 
synthetic; TAK-491

>  <status>  (464) 
USAN, INN

>  <tradename>  (464) 
EDARBI

>  <SMILES>  (464) 
CCOc1nc2cccc(C(=O)OCc3c(C)oc(=O)o3)c2n1Cc1ccc(-c2ccccc2-c2noc(O)n2)cc1

>  <standardized_failed>  (464) 
False

$$$$

     RDKit          2D

 26 27  0  0  0  0  0  0  0  0999 V2000
    3.2000   -3.0917    0.0000 C   0  0  0  0  0  0  0  0  0  0  0  0
    3.8500   -3.4667    0.0000 C   0  0  0  0  0  0  0  0  0  0  0  0
    1.8917   -0.8375    0.0000 N   0  0  0  0  0  0  0  0  0  0  0  0
    3.2000   -2.3417    0.0000 O   0  0  0  0  0  0  0  0  0  0  0  0
    2.5542   -3.4667    0.0000 O   0  0  0  0  0  0  0  0  0  0  0  0
    4.2292   -2.8125    0.0000 C   0  0  0  0  0  0  0  0  0  0  0  0
    4.4917   -3.8375    0.0000 C   0  0  0  0  0  0  0  0  0  0  0  0
    2.5417   -1.2125    0.0000 C   0  0  0  0  0  0  0  0  0  0  0  0
    1.9250   -0.0792    0.0000 Br  0  0  0  0  0  0  0  0  0  0  0  0
    2.5417   -1.9625    0.0000 C   0  0  0  0  0  0  0  0  0  0  0  0
    3.4667   -4.1167    0.0000 O   0  0  0  0  0  0  0  0  0  0  0  0
    1.2500   -1.2125    0.0000 C   0  0  0  0  0  0  0  0  0  0  0  0
    2.4917   -0.4042    0.0000 C   0  0  0  0  0  0  0  0  0  0  0  0
    1.3625   -0.3042    0.0000 C   0  0  0  0  0  0  0  0  0  0  0  0
    1.2500   -1.9625    0.0000 C   0  0  0  0  0  0  0  0  0  0  0  0
    1.8917   -2.3375    0.0000 C   0  0  0  0  0  0  0  0  0  0  0  0
    4.9792   -2.8125    0.0000 C   0  0  0  0  0  0  0  0  0  0  0  0
    4.4917   -4.5875    0.0000 C   0  0  0  0  0  0  0  0  0  0  0  0
    5.1417   -3.4625    0.0000 C   0  0  0  0  0  0  0  0  0  0  0  0
    3.8542   -2.1667    0.0000 C   0  0  0  0  0  0  0  0  0  0  0  0
    5.1417   -4.9625    0.0000 C   0  0  0  0  0  0  0  0  0  0  0  0
    5.7917   -3.8375    0.0000 C   0  0  0  0  0  0  0  0  0  0  0  0
    4.2292   -1.5167    0.0000 C   0  0  0  0  0  0  0  0  0  0  0  0
    5.3542   -2.1667    0.0000 C   0  0  0  0  0  0  0  0  0  0  0  0
    5.7917   -4.5875    0.0000 C   0  0  0  0  0  0  0  0  0  0  0  0
    4.9792   -1.5167    0.0000 C   0  0  0  0  0  0  0  0  0  0  0  0
  2  1  1  0
  3  8  1  0
  4  1  1  0
  5  1  2  0
  6  2  1  0
  7  2  1  0
  8 10  1  0
 10  4  1  0
 11  2  1  0
 12 15  1  0
 13  3  1  0
 14  3  1  0
 15 16  1  0
 16 10  1  0
 17  6  2  0
 18  7  2  0
 19  7  1  0
 20  6  1  0
 21 18  1  0
 22 19  2  0
 23 20  2  0
 24 17  1  0
 25 22  1  0
 26 24  2  0
 12  3  1  0
 21 25  2  0
 23 26  1  0
M  CHG  2   3   1   9  -1
M  END
>  <ID>  (465) 


>  <MOLENAME>  (465) 
MEPENZOLATE BROMIDE

>  <therap>  (465) 
anticholinergic

>  <ref>  (465) 
Am. J. Dig. Dis. (1960), 5, 639-54; Arch. Int. Pharmacodyn. Ther. (1959), 121, 78-84; J. Am. Pharm. Assoc. (1957), 46, 592-4

>  <cas#>  (465) 
76-90-4, 25990-43-6 [mepenzolate]

>  <source>  (465) 
synthetic

>  <status>  (465) 
USP-XXIII, INN, BAN

>  <tradename>  (465) 
CANTIL

>  <SMILES>  (465) 
C[N+]1(C)CCCC(OC(=O)C(O)(c2ccccc2)c2ccccc2)C1

>  <standardized_failed>  (465) 
False

$$$$

     RDKit          2D

 28 31  0  0  0  0  0  0  0  0999 V2000
    4.8292   -7.0167    0.0000 C   0  0  0  0  0  0  0  0  0  0  0  0
    6.9750   -5.7750    0.0000 C   0  0  0  0  0  0  0  0  0  0  0  0
    7.7542   -5.5167    0.0000 C   0  0  0  0  0  0  0  0  0  0  0  0
    4.8292   -7.8417    0.0000 C   0  0  0  0  0  0  0  0  0  0  0  0
    6.2542   -7.0167    0.0000 C   0  0  0  0  0  0  0  0  0  0  0  0
    5.5417   -6.6042    0.0000 C   0  0  0  0  0  0  0  0  0  0  0  0
    6.9750   -6.6042    0.0000 C   0  0  0  0  0  0  0  0  0  0  0  0
    6.2542   -7.8417    0.0000 C   0  0  0  0  0  0  0  0  0  0  0  0
    4.1167   -8.2542    0.0000 C   0  0  0  0  0  0  0  0  0  0  0  0
    5.5417   -8.2542    0.0000 C   0  0  0  0  0  0  0  0  0  0  0  0
    6.2542   -5.3625    0.0000 C   0  0  0  0  0  0  0  0  0  0  0  0
    8.2417   -6.1875    0.0000 C   0  0  0  0  0  0  0  0  0  0  0  0
    8.8875   -5.5750    0.0000 O   0  0  0  0  0  0  0  0  0  0  0  0
    5.5417   -5.7750    0.0000 C   0  0  0  0  0  0  0  0  0  0  0  0
    7.7542   -6.8542    0.0000 C   0  0  0  0  0  0  0  0  0  0  0  0
    4.1167   -6.6042    0.0000 C   0  0  0  0  0  0  0  0  0  0  0  0
    8.0917   -4.7667    0.0000 C   0  0  0  0  0  0  0  0  0  0  0  0
    8.9750   -6.3917    0.0000 C   0  0  0  0  0  0  0  0  0  0  0  0
    3.4000   -7.8417    0.0000 C   0  0  0  0  0  0  0  0  0  0  0  0
    9.7292   -6.7292    0.0000 O   0  0  0  0  0  0  0  0  0  0  0  0
    8.9167   -4.6792    0.0000 O   0  0  0  0  0  0  0  0  0  0  0  0
    2.6792   -8.2667    0.0000 O   0  0  0  0  0  0  0  0  0  0  0  0
    3.4000   -7.0167    0.0000 C   0  0  0  0  0  0  0  0  0  0  0  0
    4.8292   -6.1875    0.0000 C   0  0  0  0  0  0  0  0  0  0  0  0
    6.9792   -4.9917    0.0000 C   0  0  0  0  0  0  0  0  0  0  0  0
    5.5417   -9.0792    0.0000 C   0  0  0  0  0  0  0  0  0  0  0  0
    8.3042   -6.8792    0.0000 C   0  0  0  0  0  0  0  0  0  0  0  0
    7.6042   -4.0917    0.0000 C   0  0  0  0  0  0  0  0  0  0  0  0
  2 11  1  0
  3  2  1  0
  4  1  1  0
  5  6  1  0
  6  1  1  0
  7  5  1  0
  8  5  1  0
  9  4  2  0
 10  4  1  0
 11 14  1  0
 12 15  1  0
  3 13  1  6
 14  6  1  0
 15  7  1  0
 16  1  1  0
  3 17  1  0
 18 13  1  0
 19 23  1  0
 20 18  2  0
 21 17  2  0
 22 19  2  0
 23 16  1  0
  1 24  1  1
  2 25  1  1
 10 26  1  6
 27 18  1  0
 28 17  1  0
  8 10  1  0
  9 19  1  0
  7  2  1  0
  3 12  1  0
M  END
>  <ID>  (466) 


>  <MOLENAME>  (466) 
MEDROXYPROGESTERONE ACETATE

>  <therap>  (466) 
contraceptive

>  <ref>  (466) 
Am. J. Obstet. Gynecol. (1994), 170(5 Pt 2), 1543-9; Proc. Soc. Exp. Biol. Med. (1960), 103, 175-7; J. Am. Chem. Soc. (1958), 80, 2904-5

>  <cas#>  (466) 
71-58-9, 520-85-4 [medroxyprogesterone]

>  <source>  (466) 
semisynthetic; NSC-26386

>  <status>  (466) 
USP, INN, BAN, JAN

>  <tradename>  (466) 
PROVERA

>  <SMILES>  (466) 
CC(=O)O[C@]1(C(C)=O)CCC2C3C[C@H](C)C4=CC(=O)CC[C@]4(C)C3CC[C@@]21C

>  <standardized_failed>  (466) 
False

$$$$

     RDKit          2D

 27 28  0  0  0  0  0  0  0  0999 V2000
    7.5000   -4.6792    0.0000 N   0  0  0  0  0  0  0  0  0  0  0  0
    7.5000   -5.4292    0.0000 C   0  0  0  0  0  0  0  0  0  0  0  0
    6.7500   -4.6792    0.0000 C   0  0  0  0  0  0  0  0  0  0  0  0
    6.7500   -5.4167    0.0000 C   0  0  0  0  0  0  0  0  0  0  0  0
    8.1500   -4.3042    0.0000 C   0  0  0  0  0  0  0  0  0  0  0  0
    8.4000   -5.6292    0.0000 S   0  0  0  0  0  0  0  0  0  0  0  0
    8.7667   -4.8667    0.0000 C   0  0  0  0  0  0  0  0  0  0  0  0
    5.4375   -5.9375    0.0000 C   0  0  0  0  0  0  0  0  0  0  0  0
    6.1917   -5.9292    0.0000 N   0  0  0  0  0  0  0  0  0  0  0  0
    5.0917   -6.6042    0.0000 C   0  0  0  0  0  0  0  0  0  0  0  0
    8.1500   -3.6917    0.0000 C   0  0  0  0  0  0  0  0  0  0  0  0
    6.3417   -4.1625    0.0000 O   0  0  0  0  0  0  0  0  0  0  0  0
    5.0375   -5.1542    0.0000 O   0  0  0  0  0  0  0  0  0  0  0  0
    5.3292   -7.2417    0.0000 C   0  0  0  0  0  0  0  0  0  0  0  0
    4.1667   -6.6375    0.0000 C   0  0  0  0  0  0  0  0  0  0  0  0
    8.6500   -3.2250    0.0000 O   0  0  0  0  0  0  0  0  0  0  0  0
    7.6167   -3.2875    0.0000 O   0  0  0  0  0  0  0  0  0  0  0  0
    9.3667   -4.3792    0.0000 C   0  0  0  0  0  0  0  0  0  0  0  0
    9.4625   -5.2875    0.0000 C   0  0  0  0  0  0  0  0  0  0  0  0
    3.7542   -6.0042    0.0000 O   0  0  0  0  0  0  0  0  0  0  0  0
    6.0792   -7.2042    0.0000 O   0  0  0  0  0  0  0  0  0  0  0  0
    9.6667   -3.4292    0.0000 Na  0  0  0  0  0 15  0  0  0  0  0  0
    4.2375   -7.9417    0.0000 C   0  0  0  0  0  0  0  0  0  0  0  0
    4.9792   -7.9042    0.0000 C   0  0  0  0  0  0  0  0  0  0  0  0
    3.8250   -7.3125    0.0000 C   0  0  0  0  0  0  0  0  0  0  0  0
    4.1042   -5.3417    0.0000 C   0  0  0  0  0  0  0  0  0  0  0  0
    6.4875   -7.8292    0.0000 C   0  0  0  0  0  0  0  0  0  0  0  0
  2  1  1  0
  3  1  1  0
  4  3  1  0
  5  1  1  0
  2  6  1  6
  7  5  1  0
  8  9  1  0
  4  9  1  6
 10  8  1  0
  5 11  1  1
 12  3  2  0
 13  8  2  0
 14 10  2  0
 15 10  1  0
 16 11  1  0
 17 11  2  0
 18  7  1  0
 19  7  1  0
 20 15  1  0
 21 14  1  0
 23 25  1  0
 24 14  1  0
 25 15  2  0
 26 20  1  0
 27 21  1  0
  7  6  1  0
  4  2  1  0
 24 23  2  0
M  CHG  2  16  -1  22   1
M  END
>  <ID>  (467) 


>  <MOLENAME>  (467) 
METHICILLIN SODIUM

>  <therap>  (467) 
antibacterial

>  <ref>  (467) 
Adv. Pharmacol. Chemother. (1973), 11, 151-220; Lancet (1960), 2(7150), 564-7; Br. Med. J. (1960), 2, 694-9

>  <cas#>  (467) 
7246-14-2, 132-92-3 [anhydrous], 61-32-5 [methicillin]

>  <source>  (467) 
semisynthetic; BRL-1241, SQ-16123, X-1497

>  <status>  (467) 
USAN, INN, BAN, JAN

>  <tradename>  (467) 
STAPHCILLIN

>  <SMILES>  (467) 
COc1cccc(OC)c1C(=O)N[C@@H]1C(=O)N2[C@@H](C(=O)O)C(C)(C)S[C@H]12

>  <standardized_failed>  (467) 
False

$$$$

     RDKit          2D

 46 52  0  0  0  0  0  0  0  0999 V2000
    4.2042   -4.6292    0.0000 C   0  0  0  0  0  0  0  0  0  0  0  0
    6.0292   -5.0417    0.0000 C   0  0  0  0  0  0  0  0  0  0  0  0
    3.4917   -5.8625    0.0000 C   0  0  0  0  0  0  0  0  0  0  0  0
    5.5417   -3.0000    0.0000 C   0  0  0  0  0  0  0  0  0  0  0  0
    5.6542   -5.7667    0.0000 C   0  0  0  0  0  0  0  0  0  0  0  0
    4.2042   -5.4625    0.0000 C   0  0  0  0  0  0  0  0  0  0  0  0
    5.6542   -4.3167    0.0000 C   0  0  0  0  0  0  0  0  0  0  0  0
    4.2042   -3.7917    0.0000 C   0  0  0  0  0  0  0  0  0  0  0  0
    6.0542   -3.5917    0.0000 C   0  0  0  0  0  0  0  0  0  0  0  0
    4.8417   -4.1167    0.0000 C   0  0  0  0  0  0  0  0  0  0  0  0
    7.0917   -4.7417    0.0000 C   0  0  0  0  0  0  0  0  0  0  0  0
    3.4792   -5.0500    0.0000 N   0  0  0  0  0  0  0  0  0  0  0  0
    6.7167   -3.0125    0.0000 C   0  0  0  0  0  0  0  0  0  0  0  0
    4.8417   -5.9667    0.0000 C   0  0  0  0  0  0  0  0  0  0  0  0
    4.2042   -6.2792    0.0000 C   0  0  0  0  0  0  0  0  0  0  0  0
    4.7792   -3.3417    0.0000 C   0  0  0  0  0  0  0  0  0  0  0  0
    3.4917   -4.2417    0.0000 C   0  0  0  0  0  0  0  0  0  0  0  0
    7.6792   -3.6000    0.0000 O   0  0  0  0  0  0  0  0  0  0  0  0
    2.7917   -5.4625    0.0000 C   0  0  0  0  0  0  0  0  0  0  0  0
    8.3292   -4.1500    0.0000 C   0  0  0  0  0  0  0  0  0  0  0  0
    2.7917   -4.6292    0.0000 C   0  0  0  0  0  0  0  0  0  0  0  0
    6.8125   -5.6625    0.0000 O   0  0  0  0  0  0  0  0  0  0  0  0
    6.7792   -6.6917    0.0000 C   0  0  0  0  0  0  0  0  0  0  0  0
    5.5625   -2.2250    0.0000 O   0  0  0  0  0  0  0  0  0  0  0  0
    8.3417   -4.7542    0.0000 O   0  0  0  0  0  0  0  0  0  0  0  0
    9.0667   -3.7917    0.0000 C   0  0  0  0  0  0  0  0  0  0  0  0
    2.7917   -6.2792    0.0000 C   0  0  0  0  0  0  0  0  0  0  0  0
    7.5292   -5.4000    0.0000 O   0  0  0  0  0  0  0  0  0  0  0  0
    5.9375   -6.8792    0.0000 O   0  0  0  0  0  0  0  0  0  0  0  0
    6.9417   -2.3167    0.0000 O   0  0  0  0  0  0  0  0  0  0  0  0
    4.6292   -6.8792    0.0000 O   0  0  0  0  0  0  0  0  0  0  0  0
    2.0792   -5.0500    0.0000 C   0  0  0  0  0  0  0  0  0  0  0  0
    3.4917   -3.3917    0.0000 O   0  0  0  0  0  0  0  0  0  0  0  0
    2.0792   -5.8917    0.0000 O   0  0  0  0  0  0  0  0  0  0  0  0
    2.7917   -7.1125    0.0000 O   0  0  0  0  0  0  0  0  0  0  0  0
    7.4542   -7.1542    0.0000 C   0  0  0  0  0  0  0  0  0  0  0  0
    9.7500   -4.2667    0.0000 C   0  0  0  0  0  0  0  0  0  0  0  0
    9.1375   -2.9750    0.0000 C   0  0  0  0  0  0  0  0  0  0  0  0
    5.3167   -7.5292    0.0000 C   0  0  0  0  0  0  0  0  0  0  0  0
    7.9667   -2.3167    0.0000 C   0  0  0  0  0  0  0  0  0  0  0  0
    2.7917   -3.0000    0.0000 C   0  0  0  0  0  0  0  0  0  0  0  0
    1.8792   -7.4625    0.0000 C   0  0  0  0  0  0  0  0  0  0  0  0
    1.2750   -4.5792    0.0000 C   0  0  0  0  0  0  0  0  0  0  0  0
    9.8792   -2.6167    0.0000 C   0  0  0  0  0  0  0  0  0  0  0  0
   10.4917   -3.9125    0.0000 C   0  0  0  0  0  0  0  0  0  0  0  0
   10.5625   -3.0875    0.0000 C   0  0  0  0  0  0  0  0  0  0  0  0
  2  7  1  0
  3  6  1  0
  4 16  1  0
  5  8  1  0
  6  1  1  0
  7 10  1  0
  1  8  1  0
  9  7  1  0
 10  1  1  0
  2 11  1  0
  8 12  1  6
  4 13  1  0
 14  6  1  0
 15 12  1  0
 16 10  1  0
  1 17  1  1
  9 18  1  6
 19 21  1  0
 20 18  1  0
 21 17  1  0
  2 22  1  1
 23 22  1  0
  4 24  1  1
 25 20  2  0
 26 20  1  0
  3 27  1  1
 11 28  1  6
 29 23  2  0
 13 30  1  1
 14 31  1  6
 12 32  1  0
 33 17  1  0
 19 34  1  6
 35 27  1  0
 36 23  1  0
 37 26  2  0
 38 26  1  0
 39 31  1  0
 40 30  1  0
 41 33  1  0
 42 35  1  0
 43 32  1  0
 44 38  2  0
 45 37  1  0
 46 44  1  0
  2  5  1  0
  5 14  1  1
 19  3  1  0
  9  4  1  0
  3 15  1  0
 11 13  1  0
 46 45  2  0
M  END
>  <ID>  (468) 


>  <MOLENAME>  (468) 
ACONITINE

>  <therap>  (468) 
anesthetic (gastric), antipyretic, and cardiotoxin

>  <ref>  (468) 
Neuropharmacol 34: 1139 (1995); Biochem Pharmacol 55: 883 (1998)

>  <cas#>  (468) 
302-27-2

>  <source>  (468) 
Aconitum spp

>  <status>  (468) 
USP-X, BP-1934

>  <tradename>  (468) 
nan

>  <SMILES>  (468) 
CCN1C[C@@]2(COC)C3[C@@H](OC)[C@H]4[C@@H]1[C@]3(C(OC)C[C@H]2O)C1C[C@]2(O)[C@@H](OC)[C@H](O)[C@@]4(OC(C)=O)C1[C@H]2OC(=O)c1ccccc1

>  <standardized_failed>  (468) 
False

$$$$

     RDKit          2D

 23 26  0  0  0  0  0  0  0  0999 V2000
    7.4917   -7.2000    0.0000 C   0  0  0  0  0  0  0  0  0  0  0  0
    5.3500   -8.4417    0.0000 C   0  0  0  0  0  0  0  0  0  0  0  0
    5.3500   -9.2667    0.0000 C   0  0  0  0  0  0  0  0  0  0  0  0
    7.4917   -8.0292    0.0000 C   0  0  0  0  0  0  0  0  0  0  0  0
    6.0625   -8.0292    0.0000 C   0  0  0  0  0  0  0  0  0  0  0  0
    6.7792   -8.4417    0.0000 C   0  0  0  0  0  0  0  0  0  0  0  0
    8.2792   -6.9417    0.0000 C   0  0  0  0  0  0  0  0  0  0  0  0
    4.6375   -9.6792    0.0000 C   0  0  0  0  0  0  0  0  0  0  0  0
    6.7750   -6.7875    0.0000 C   0  0  0  0  0  0  0  0  0  0  0  0
    6.0625   -7.2000    0.0000 C   0  0  0  0  0  0  0  0  0  0  0  0
    8.2792   -8.2792    0.0000 C   0  0  0  0  0  0  0  0  0  0  0  0
    4.6375   -8.0292    0.0000 C   0  0  0  0  0  0  0  0  0  0  0  0
    8.7625   -7.6125    0.0000 C   0  0  0  0  0  0  0  0  0  0  0  0
    6.7792   -9.2667    0.0000 C   0  0  0  0  0  0  0  0  0  0  0  0
    8.5292   -6.1542    0.0000 C   0  0  0  0  0  0  0  0  0  0  0  0
    6.0625   -9.6792    0.0000 C   0  0  0  0  0  0  0  0  0  0  0  0
    3.9167   -9.2667    0.0000 C   0  0  0  0  0  0  0  0  0  0  0  0
    9.3375   -5.9792    0.0000 O   0  0  0  0  0  0  0  0  0  0  0  0
    3.2000   -9.6875    0.0000 O   0  0  0  0  0  0  0  0  0  0  0  0
    3.9167   -8.4417    0.0000 C   0  0  0  0  0  0  0  0  0  0  0  0
    7.4917   -6.3750    0.0000 C   0  0  0  0  0  0  0  0  0  0  0  0
    5.3500   -7.6125    0.0000 C   0  0  0  0  0  0  0  0  0  0  0  0
    7.9792   -5.5417    0.0000 C   0  0  0  0  0  0  0  0  0  0  0  0
  2  5  1  0
  3  2  1  0
  4  1  1  0
  5 10  1  0
  6  4  1  0
  7  1  1  0
  8  3  2  0
  9  1  1  0
 10  9  1  0
 11  4  1  0
 12  2  1  0
 13  7  1  0
 14  6  1  0
  7 15  1  1
 16 14  1  0
 17 20  1  0
 18 15  2  0
 19 17  2  0
 20 12  1  0
  1 21  1  1
  2 22  1  1
 23 15  1  0
 13 11  1  0
  5  6  1  0
 16  3  1  0
 17  8  1  0
M  END
>  <ID>  (469) 


>  <MOLENAME>  (469) 
PROGESTERONE

>  <therap>  (469) 
progestogen

>  <ref>  (469) 
Proc Soc Exp Biol Med 46:116 (1941); Vitam Horm 23:209 (1965)

>  <cas#>  (469) 
57-83-0

>  <source>  (469) 
semisynthetic; NSC-9704

>  <status>  (469) 
USP, INN, BAN, JAN

>  <tradename>  (469) 
ENDOMETRIN

>  <SMILES>  (469) 
CC(=O)[C@H]1CCC2C3CCC4=CC(=O)CC[C@]4(C)C3CC[C@@]21C

>  <standardized_failed>  (469) 
False

$$$$

     RDKit          2D

 33 35  0  0  0  0  0  0  0  0999 V2000
    5.4625   -4.8417    0.0000 C   0  0  0  0  0  0  0  0  0  0  0  0
    5.4625   -6.4917    0.0000 C   0  0  0  0  0  0  0  0  0  0  0  0
    6.1792   -5.2542    0.0000 C   0  0  0  0  0  0  0  0  0  0  0  0
    5.4625   -4.0167    0.0000 C   0  0  0  0  0  0  0  0  0  0  0  0
    4.7500   -5.2542    0.0000 C   0  0  0  0  0  0  0  0  0  0  0  0
    6.1750   -3.6042    0.0000 C   0  0  0  0  0  0  0  0  0  0  0  0
    6.8917   -4.8417    0.0000 N   0  0  0  0  0  0  0  0  0  0  0  0
    4.7500   -6.0792    0.0000 C   0  0  0  0  0  0  0  0  0  0  0  0
    6.1667   -2.7792    0.0000 C   0  0  0  0  0  0  0  0  0  0  0  0
    6.1792   -6.0792    0.0000 C   0  0  0  0  0  0  0  0  0  0  0  0
    5.2875   -7.3042    0.0000 C   0  0  0  0  0  0  0  0  0  0  0  0
    4.2125   -7.3042    0.0000 N   0  0  0  0  0  0  0  0  0  0  0  0
    6.8917   -4.0167    0.0000 C   0  0  0  0  0  0  0  0  0  0  0  0
    6.8750   -2.3625    0.0000 N   0  0  0  0  0  0  0  0  0  0  0  0
    4.0375   -6.4917    0.0000 C   0  0  0  0  0  0  0  0  0  0  0  0
   10.1625   -6.4250    0.0000 C   0  0  0  0  0  0  0  0  0  0  0  0
   10.1625   -5.0917    0.0000 C   0  0  0  0  0  0  0  0  0  0  0  0
    9.5917   -5.4292    0.0000 C   0  0  0  0  0  0  0  0  0  0  0  0
    9.5917   -6.0917    0.0000 C   0  0  0  0  0  0  0  0  0  0  0  0
    5.4417   -2.3667    0.0000 O   0  0  0  0  0  0  0  0  0  0  0  0
   10.7375   -5.4292    0.0000 O   0  0  0  0  0  0  0  0  0  0  0  0
   10.1625   -7.0917    0.0000 O   0  0  0  0  0  0  0  0  0  0  0  0
    4.0375   -4.8417    0.0000 C   0  0  0  0  0  0  0  0  0  0  0  0
    7.6167   -5.2667    0.0000 C   0  0  0  0  0  0  0  0  0  0  0  0
   10.1625   -4.4292    0.0000 O   0  0  0  0  0  0  0  0  0  0  0  0
   10.7375   -6.0917    0.0000 O   0  0  0  0  0  0  0  0  0  0  0  0
    7.5917   -2.7667    0.0000 C   0  0  0  0  0  0  0  0  0  0  0  0
    8.3542   -3.9042    0.0000 O   0  0  0  0  0  0  0  0  0  0  0  0
    3.3167   -5.2542    0.0000 C   0  0  0  0  0  0  0  0  0  0  0  0
    3.3167   -6.0792    0.0000 C   0  0  0  0  0  0  0  0  0  0  0  0
    7.6042   -3.6000    0.0000 C   0  0  0  0  0  0  0  0  0  0  0  0
    8.3042   -2.3542    0.0000 C   0  0  0  0  0  0  0  0  0  0  0  0
    9.0250   -2.7667    0.0000 C   0  0  0  0  0  0  0  0  0  0  0  0
  2  8  1  0
  3  1  1  0
  4  1  2  0
  5  1  1  0
  6  4  1  0
  3  7  1  0
  8  5  2  0
  6  9  1  1
  3 10  1  6
 11  2  2  0
 12 15  1  0
 13  6  1  0
 14  9  1  0
 15  8  1  0
 17 18  1  0
 18 19  2  0
 19 16  1  0
 20  9  2  0
 21 17  2  0
 22 16  2  0
 23  5  1  0
 24  7  1  0
 25 17  1  0
 26 16  1  0
 27 14  1  0
 28 31  1  0
 29 23  2  0
 30 29  1  0
 27 31  1  1
 32 27  1  0
 33 32  1  0
  2 10  1  0
 13  7  1  0
 15 30  2  0
 11 12  1  0
M  END
>  <ID>  (470) 


>  <MOLENAME>  (470) 
METHYLERGONOVINE MALEATE

>  <therap>  (470) 
oxytocic

>  <ref>  (470) 
Drugs (1998), 56(4), 523-535; Headache (1997), 37(7), 437-42; J. Am. Pharm. Assoc., Sci. Ed. (1947), 36, 145-9

>  <cas#>  (470) 
57432-61-8, 113-42-8 [methylergonovine]

>  <source>  (470) 
semisynthetic

>  <status>  (470) 
USP, INN, BAN, JAN

>  <tradename>  (470) 
METHERGINE

>  <SMILES>  (470) 
CC[C@@H](CO)NC(=O)[C@@H]1C=C2c3c4c(c[nH]c4ccc3)C[C@H]2N(C)C1

>  <standardized_failed>  (470) 
False

$$$$

     RDKit          2D

 16 18  0  0  0  0  0  0  0  0999 V2000
    5.8875   -6.7792    0.0000 C   0  0  0  0  0  0  0  0  0  0  0  0
    6.6000   -6.3667    0.0000 C   0  0  0  0  0  0  0  0  0  0  0  0
    7.3167   -6.7792    0.0000 C   0  0  0  0  0  0  0  0  0  0  0  0
    5.1750   -6.3667    0.0000 O   0  0  0  0  0  0  0  0  0  0  0  0
    5.8875   -7.6042    0.0000 C   0  0  0  0  0  0  0  0  0  0  0  0
    7.3167   -7.6042    0.0000 C   0  0  0  0  0  0  0  0  0  0  0  0
    4.4542   -6.7792    0.0000 C   0  0  0  0  0  0  0  0  0  0  0  0
    5.1750   -8.0167    0.0000 C   0  0  0  0  0  0  0  0  0  0  0  0
    6.6000   -8.0167    0.0000 C   0  0  0  0  0  0  0  0  0  0  0  0
    4.4542   -7.6042    0.0000 C   0  0  0  0  0  0  0  0  0  0  0  0
    8.1000   -6.5250    0.0000 O   0  0  0  0  0  0  0  0  0  0  0  0
    8.5792   -7.1917    0.0000 C   0  0  0  0  0  0  0  0  0  0  0  0
    8.1000   -7.8542    0.0000 C   0  0  0  0  0  0  0  0  0  0  0  0
    3.7375   -6.3667    0.0000 O   0  0  0  0  0  0  0  0  0  0  0  0
    6.6000   -5.5417    0.0000 O   0  0  0  0  0  0  0  0  0  0  0  0
    7.3125   -5.1292    0.0000 C   0  0  0  0  0  0  0  0  0  0  0  0
  2  1  2  0
  3  2  1  0
  4  1  1  0
  5  1  1  0
  6  9  1  0
  7  4  1  0
  8  5  1  0
  9  5  2  0
 10  8  2  0
 11  3  1  0
 12 11  1  0
 13  6  1  0
 14  7  2  0
 15  2  1  0
 16 15  1  0
  6  3  2  0
 10  7  1  0
 12 13  2  0
M  END
>  <ID>  (471) 


>  <MOLENAME>  (471) 
METHOXSALEN

>  <therap>  (471) 
antipsoriatic, pigmentation agent

>  <ref>  (471) 
Annu Rev Pharmacol Toxicol 20:235 (1980); Clin Pharmacol Therap  71:153 (2002)

>  <cas#>  (471) 
298-81-7

>  <source>  (471) 
Amni visnaga

>  <status>  (471) 
USP, BAN, JAN

>  <tradename>  (471) 
OXSORALENE

>  <SMILES>  (471) 
COc1c2oc(=O)ccc2cc2c1occ2

>  <standardized_failed>  (471) 
False

$$$$

     RDKit          2D

 14 14  0  0  0  0  0  0  0  0999 V2000
    4.8917   -8.3125    0.0000 C   0  0  0  0  0  0  0  0  0  0  0  0
    4.2042   -8.0042    0.0000 N   0  0  0  0  0  0  0  0  0  0  0  0
    5.5375   -7.9375    0.0000 O   0  0  0  0  0  0  0  0  0  0  0  0
    5.0500   -9.0500    0.0000 C   0  0  0  0  0  0  0  0  0  0  0  0
    8.0542   -6.7292    0.0000 C   0  0  0  0  0  0  0  0  0  0  0  0
    6.0917   -8.4417    0.0000 C   0  0  0  0  0  0  0  0  0  0  0  0
    7.0792   -7.5792    0.0000 N   0  0  0  0  0  0  0  0  0  0  0  0
    5.7917   -9.1250    0.0000 C   0  0  0  0  0  0  0  0  0  0  0  0
    4.1250   -7.2667    0.0000 O   0  0  0  0  0  0  0  0  0  0  0  0
    3.6000   -8.4500    0.0000 O   0  0  0  0  0  0  0  0  0  0  0  0
    6.8375   -8.2917    0.0000 C   0  0  0  0  0  0  0  0  0  0  0  0
    7.8167   -7.4375    0.0000 N   0  0  0  0  0  0  0  0  0  0  0  0
    8.7917   -6.5792    0.0000 O   0  0  0  0  0  0  0  0  0  0  0  0
    7.5667   -6.1625    0.0000 N   0  0  0  0  0  0  0  0  0  0  0  0
  2  1  1  0
  3  1  1  0
  4  1  2  0
  5 12  1  0
  6  3  1  0
  7 11  2  0
  8  4  1  0
  9  2  1  0
 10  2  2  0
 11  6  1  0
 12  7  1  0
 13  5  2  0
 14  5  1  0
  6  8  2  0
M  CHG  2   2   1   9  -1
M  END
>  <ID>  (472) 


>  <MOLENAME>  (472) 
NITROFURAZONE

>  <therap>  (472) 
antiinfective (topical)

>  <ref>  (472) 
Drugs (2001), 61(3), 353-364; J. Med. Chem. (1970), 13(6), 1102-5; J. Med. Chem. (1967), 10(4), 530-3

>  <cas#>  (472) 
59-87-0

>  <source>  (472) 
synthetic

>  <status>  (472) 
USP, INN, BAN

>  <tradename>  (472) 
ACTIN-N

>  <SMILES>  (472) 
NC(=O)N/N=C/c1ccc([N+](=O)[O-])o1

>  <standardized_failed>  (472) 
False

$$$$

     RDKit          2D

  9  9  0  0  0  0  0  0  0  0999 V2000
    6.8542   -7.2750    0.0000 N   0  0  0  0  0  0  0  0  0  0  0  0
    6.8542   -6.5167    0.0000 C   0  0  0  0  0  0  0  0  0  0  0  0
    6.2000   -7.6500    0.0000 C   0  0  0  0  0  0  0  0  0  0  0  0
    5.5542   -7.2750    0.0000 C   0  0  0  0  0  0  0  0  0  0  0  0
    6.2000   -6.1417    0.0000 N   0  0  0  0  0  0  0  0  0  0  0  0
    5.5542   -6.5167    0.0000 C   0  0  0  0  0  0  0  0  0  0  0  0
    7.5042   -6.1417    0.0000 S   0  0  0  0  0  0  0  0  0  0  0  0
    6.2000   -8.4000    0.0000 O   0  0  0  0  0  0  0  0  0  0  0  0
    4.9000   -6.1417    0.0000 C   0  0  0  0  0  0  0  0  0  0  0  0
  2  1  1  0
  3  1  1  0
  4  3  1  0
  5  2  1  0
  6  4  2  0
  7  2  2  0
  8  3  2  0
  9  6  1  0
  6  5  1  0
M  END
>  <ID>  (473) 


>  <MOLENAME>  (473) 
METHYLTHIOURACIL

>  <therap>  (473) 
antithyroid agent

>  <ref>  (473) 
Acta Endocrinol. (1948), 1(3), 248-57; Am. J. Med. Sci. (1947), 214(4), 349-62; Acta Med. Scand. (1946), 125, 263-82

>  <cas#>  (473) 
56-04-2

>  <source>  (473) 
synthetic

>  <status>  (473) 
USP-XXI, INN

>  <tradename>  (473) 
nan

>  <SMILES>  (473) 
Cc1cc(=O)[nH]c(=S)[nH]1

>  <standardized_failed>  (473) 
False

$$$$

     RDKit          2D

 29 30  0  0  0  0  0  0  0  0999 V2000
    3.8292   -2.1750    0.0000 N   0  0  0  0  0  0  0  0  0  0  0  0
    6.8000   -3.1125    0.0000 C   0  0  0  0  0  0  0  0  0  0  0  0
    7.1750   -3.7625    0.0000 C   0  0  0  0  0  0  0  0  0  0  0  0
    6.0500   -1.8167    0.0000 N   0  0  0  0  0  0  0  0  0  0  0  0
    6.4375   -0.6667    0.0000 N   0  0  0  0  0  0  0  0  0  0  0  0
    6.0500   -3.1125    0.0000 C   0  0  0  0  0  0  0  0  0  0  0  0
    4.9250   -5.0625    0.0000 C   0  0  0  0  0  0  0  0  0  0  0  0
    4.5500   -4.4125    0.0000 C   0  0  0  0  0  0  0  0  0  0  0  0
    5.8250   -1.1042    0.0000 C   0  0  0  0  0  0  0  0  0  0  0  0
    7.9250   -3.7625    0.0000 C   0  0  0  0  0  0  0  0  0  0  0  0
    4.4167   -2.5167    0.0000 O   0  0  0  0  0  0  0  0  0  0  0  0
    7.1750   -2.4667    0.0000 C   0  0  0  0  0  0  0  0  0  0  0  0
    4.5500   -5.7125    0.0000 C   0  0  0  0  0  0  0  0  0  0  0  0
    5.6750   -2.4667    0.0000 C   0  0  0  0  0  0  0  0  0  0  0  0
    3.8292   -1.4917    0.0000 O   0  0  0  0  0  0  0  0  0  0  0  0
    5.6750   -3.7625    0.0000 O   0  0  0  0  0  0  0  0  0  0  0  0
    6.8792   -1.1042    0.0000 C   0  0  0  0  0  0  0  0  0  0  0  0
    6.6500   -1.8167    0.0000 C   0  0  0  0  0  0  0  0  0  0  0  0
    4.9250   -3.7625    0.0000 C   0  0  0  0  0  0  0  0  0  0  0  0
    3.2375   -2.5125    0.0000 O   0  0  0  0  0  0  0  0  0  0  0  0
    3.8000   -4.4125    0.0000 C   0  0  0  0  0  0  0  0  0  0  0  0
    8.3000   -3.1125    0.0000 C   0  0  0  0  0  0  0  0  0  0  0  0
    3.8000   -5.7125    0.0000 C   0  0  0  0  0  0  0  0  0  0  0  0
    6.8000   -4.4125    0.0000 Cl  0  0  0  0  0  0  0  0  0  0  0  0
    5.6750   -5.0625    0.0000 Cl  0  0  0  0  0  0  0  0  0  0  0  0
    7.9250   -2.4667    0.0000 C   0  0  0  0  0  0  0  0  0  0  0  0
    3.4250   -5.0542    0.0000 C   0  0  0  0  0  0  0  0  0  0  0  0
    3.4250   -6.3667    0.0000 Cl  0  0  0  0  0  0  0  0  0  0  0  0
    9.0500   -3.1125    0.0000 Cl  0  0  0  0  0  0  0  0  0  0  0  0
  3  2  2  0
  4 14  1  0
  5  9  2  0
  6  2  1  0
  7  8  2  0
  8 19  1  0
  9  4  1  0
 10  3  1  0
 11  1  1  0
 12  2  1  0
 13  7  1  0
 14  6  1  0
 15  1  2  0
 16  6  1  0
 17 18  2  0
 18  4  1  0
 19 16  1  0
 20  1  1  0
 21  8  1  0
 22 26  1  0
 23 27  1  0
 24  3  1  0
 25  7  1  0
 26 12  2  0
 27 21  2  0
 28 23  1  0
 29 22  1  0
 10 22  2  0
  5 17  1  0
 13 23  2  0
M  CHG  2   1   1  11  -1
M  END
>  <ID>  (474) 


>  <MOLENAME>  (474) 
MICONAZOLE NITRATE

>  <therap>  (474) 
antifungal (topical)

>  <ref>  (474) 
Drugs (1975), 9(6), 406-23; Chemotherapy (1972), 17(6), 392-404; J. Med. Chem. (1969), 12(5), 784-91

>  <cas#>  (474) 
22832-87-7, 22916-47-8 [miconazole]

>  <source>  (474) 
synthetic

>  <status>  (474) 
USP, JAN

>  <tradename>  (474) 
MONISTAT

>  <SMILES>  (474) 
Clc1cc(Cl)c(COC(Cn2ccnc2)c2c(Cl)cc(Cl)cc2)cc1

>  <standardized_failed>  (474) 
False

$$$$

     RDKit          2D

 47 49  0  0  0  0  0  0  0  0999 V2000
    7.6167   -6.0250    0.0000 C   0  0  0  0  0  0  0  0  0  0  0  0
    7.4042   -7.6542    0.0000 C   0  0  0  0  0  0  0  0  0  0  0  0
    5.6792   -9.7792    0.0000 C   0  0  0  0  0  0  0  0  0  0  0  0
    5.6667   -5.0292    0.0000 C   0  0  0  0  0  0  0  0  0  0  0  0
    6.7500   -8.8167    0.0000 C   0  0  0  0  0  0  0  0  0  0  0  0
    7.0375   -5.4375    0.0000 C   0  0  0  0  0  0  0  0  0  0  0  0
    5.4292  -10.5625    0.0000 C   0  0  0  0  0  0  0  0  0  0  0  0
    4.8750   -5.2125    0.0000 C   0  0  0  0  0  0  0  0  0  0  0  0
    7.4917   -8.4792    0.0000 C   0  0  0  0  0  0  0  0  0  0  0  0
    8.9417   -2.8417    0.0000 S   0  0  0  0  0  0  0  0  0  0  0  0
    4.6250  -10.7375    0.0000 C   0  0  0  0  0  0  0  0  0  0  0  0
    4.3167   -4.6042    0.0000 C   0  0  0  0  0  0  0  0  0  0  0  0
    7.4125   -6.8292    0.0000 O   0  0  0  0  0  0  0  0  0  0  0  0
    6.6000   -7.4917    0.0000 O   0  0  0  0  0  0  0  0  0  0  0  0
    5.1292   -9.1667    0.0000 O   0  0  0  0  0  0  0  0  0  0  0  0
    5.9125   -4.2417    0.0000 O   0  0  0  0  0  0  0  0  0  0  0  0
    6.4917   -9.6042    0.0000 O   0  0  0  0  0  0  0  0  0  0  0  0
    6.2292   -5.6292    0.0000 O   0  0  0  0  0  0  0  0  0  0  0  0
    8.4167   -5.8125    0.0000 C   0  0  0  0  0  0  0  0  0  0  0  0
    4.0667  -10.1250    0.0000 C   0  0  0  0  0  0  0  0  0  0  0  0
    4.5542   -3.8250    0.0000 C   0  0  0  0  0  0  0  0  0  0  0  0
    6.1917   -8.2042    0.0000 C   0  0  0  0  0  0  0  0  0  0  0  0
    4.3292   -9.3417    0.0000 C   0  0  0  0  0  0  0  0  0  0  0  0
    5.3500   -3.6375    0.0000 C   0  0  0  0  0  0  0  0  0  0  0  0
    7.2500   -4.6542    0.0000 C   0  0  0  0  0  0  0  0  0  0  0  0
    8.6292   -5.0167    0.0000 C   0  0  0  0  0  0  0  0  0  0  0  0
    8.0542   -4.4292    0.0000 C   0  0  0  0  0  0  0  0  0  0  0  0
    8.1167   -2.8417    0.0000 O   0  0  0  0  0  0  0  0  0  0  0  0
    8.9417   -2.0167    0.0000 O   0  0  0  0  0  0  0  0  0  0  0  0
    5.9792  -11.1750    0.0000 N   0  0  0  0  0  0  0  0  0  0  0  0
    4.6292   -6.0042    0.0000 N   0  0  0  0  0  0  0  0  0  0  0  0
    9.7667   -2.8417    0.0000 O   0  0  0  0  0  0  0  0  0  0  0  0
    8.9417   -3.6667    0.0000 O   0  0  0  0  0  0  0  0  0  0  0  0
    8.2167   -8.8917    0.0000 O   0  0  0  0  0  0  0  0  0  0  0  0
    4.3750  -11.5292    0.0000 O   0  0  0  0  0  0  0  0  0  0  0  0
    3.5042   -4.7792    0.0000 O   0  0  0  0  0  0  0  0  0  0  0  0
    6.6542   -4.0875    0.0000 N   0  0  0  0  0  0  0  0  0  0  0  0
    9.4292   -4.8000    0.0000 N   0  0  0  0  0  0  0  0  0  0  0  0
    8.9917   -6.3875    0.0000 O   0  0  0  0  0  0  0  0  0  0  0  0
    3.2542  -10.2917    0.0000 O   0  0  0  0  0  0  0  0  0  0  0  0
    4.0042   -3.2167    0.0000 O   0  0  0  0  0  0  0  0  0  0  0  0
    3.7792   -8.7250    0.0000 C   0  0  0  0  0  0  0  0  0  0  0  0
    5.5750   -2.8417    0.0000 C   0  0  0  0  0  0  0  0  0  0  0  0
    5.3667   -8.2917    0.0000 C   0  0  0  0  0  0  0  0  0  0  0  0
    2.9750   -8.8875    0.0000 N   0  0  0  0  0  0  0  0  0  0  0  0
    6.3750   -2.6375    0.0000 N   0  0  0  0  0  0  0  0  0  0  0  0
    4.8875   -7.6167    0.0000 O   0  0  0  0  0  0  0  0  0  0  0  0
  2 13  1  0
  3 17  1  6
 18  4  1  0
  5  9  1  0
  6  1  1  0
  7  3  1  0
  8  4  1  0
  9  2  1  0
 11  7  1  0
 12  8  1  0
  1 13  1  1
 14  2  1  0
 15  3  1  0
 16  4  1  0
  5 17  1  6
  6 18  1  6
 19  1  1  0
 20 23  1  0
 21 24  1  0
 22 14  1  0
 23 15  1  0
 24 16  1  0
 25  6  1  0
 26 19  1  0
 27 26  1  0
 28 10  2  0
 29 10  2  0
  7 30  1  6
  8 31  1  6
 32 10  1  0
 33 10  1  0
  9 34  1  6
 11 35  1  1
 12 36  1  1
 25 37  1  1
 26 38  1  1
 19 39  1  6
 20 40  1  6
 21 41  1  6
 23 42  1  6
 24 43  1  1
 22 44  1  1
 45 42  1  0
 46 43  1  0
 47 44  1  0
 25 27  1  0
  5 22  1  0
 12 21  1  0
 11 20  1  0
M  END
>  <ID>  (475) 


>  <MOLENAME>  (475) 
NEOMYCIN SULFATE

>  <therap>  (475) 
antibacterial

>  <ref>  (475) 
Am. J. Med. (1986), 80(6B), 2-14; J. Clin. Invest. (1949), 28, 934-9; Science (1949), 109(2830), 305-7

>  <cas#>  (475) 
1405-10-3, 1404-04-2 [neomycin]

>  <source>  (475) 
Streptomyces fradiae

>  <status>  (475) 
USP, JAN

>  <tradename>  (475) 
MYCIFRADIN

>  <SMILES>  (475) 
NC[C@@H]1O[C@H](O[C@@H]2[C@@H](CO)OC(O[C@@H]3[C@@H](O)[C@H](N)C[C@H](N)[C@H]3OC3O[C@H](CN)[C@@H](O)[C@H](O)[C@H]3N)[C@@H]2O)[C@H](N)[C@@H](O)[C@@H]1O

>  <standardized_failed>  (475) 
False

$$$$

     RDKit          2D

 15 15  0  0  0  0  0  0  0  0999 V2000
    1.5667   -1.2917    0.0000 N   0  0  0  0  0  0  0  0  0  0  0  0
    4.1667   -1.2917    0.0000 N   0  0  0  0  0  0  0  0  0  0  0  0
    2.2167   -0.9167    0.0000 C   0  0  0  0  0  0  0  0  0  0  0  0
    3.5167   -0.9167    0.0000 C   0  0  0  0  0  0  0  0  0  0  0  0
    2.8667    0.2208    0.0000 C   0  0  0  0  0  0  0  0  0  0  0  0
    2.8667   -1.2917    0.0000 C   0  0  0  0  0  0  0  0  0  0  0  0
    2.8667    0.9708    0.0000 C   0  0  0  0  0  0  0  0  0  0  0  0
    2.2167   -0.1542    0.0000 C   0  0  0  0  0  0  0  0  0  0  0  0
    3.5167   -0.1542    0.0000 C   0  0  0  0  0  0  0  0  0  0  0  0
    4.1667   -2.0417    0.0000 O   0  0  0  0  0  0  0  0  0  0  0  0
    1.5667   -2.0417    0.0000 O   0  0  0  0  0  0  0  0  0  0  0  0
    4.8167   -0.9167    0.0000 O   0  0  0  0  0  0  0  0  0  0  0  0
    0.9167   -0.9167    0.0000 O   0  0  0  0  0  0  0  0  0  0  0  0
    3.5167    1.3458    0.0000 O   0  0  0  0  0  0  0  0  0  0  0  0
    2.2167    1.3458    0.0000 N   0  0  0  0  0  0  0  0  0  0  0  0
  2  4  1  0
  3  1  1  0
  4  6  1  0
  5  8  2  0
  6  3  2  0
  7  5  1  0
  8  3  1  0
  9  5  1  0
 10  2  1  0
 11  1  1  0
 12  2  2  0
 13  1  2  0
 14  7  2  0
 15  7  1  0
  9  4  2  0
M  CHG  4   1   1   2   1  10  -1  11  -1
M  END
>  <ID>  (476) 


>  <MOLENAME>  (476) 
NITROMIDE

>  <therap>  (476) 
antibacterial, coccidiostat

>  <ref>  (476) 
Arch. Biochem. Biophys. (2001), 393(2), 199-206; Mol. Pharmacol. (1977), 13(2), 269-82; Radiat. Res. (1976), 65(3), 529-39

>  <cas#>  (476) 
121-81-3

>  <source>  (476) 
synthetic; NSC-60719

>  <status>  (476) 
USAN

>  <tradename>  (476) 
nan

>  <SMILES>  (476) 
NC(=O)c1cc([N+](=O)[O-])cc([N+](=O)[O-])c1

>  <standardized_failed>  (476) 
False

$$$$

     RDKit          2D

 13 12  0  0  0  0  0  0  0  0999 V2000
    5.2417   -4.1875    0.0000 C   0  0  0  0  0  0  0  0  0  0  0  0
    4.8667   -4.8375    0.0000 C   0  0  0  0  0  0  0  0  0  0  0  0
    5.9917   -4.1875    0.0000 C   0  0  0  0  0  0  0  0  0  0  0  0
    5.2417   -5.4792    0.0000 C   0  0  0  0  0  0  0  0  0  0  0  0
    5.9917   -5.4792    0.0000 C   0  0  0  0  0  0  0  0  0  0  0  0
    6.3667   -4.8375    0.0000 C   0  0  0  0  0  0  0  0  0  0  0  0
    6.3667   -3.5292    0.0000 O   0  0  0  0  0  0  0  0  0  0  0  0
    4.1167   -4.8375    0.0000 O   0  0  0  0  0  0  0  0  0  0  0  0
    4.8667   -6.1375    0.0000 O   0  0  0  0  0  0  0  0  0  0  0  0
    8.3875   -4.5292    0.0000 Cl  0  0  0  0  0  0  0  0  0  0  0  0
    8.2417   -5.4792    0.0000 N   0  0  0  0  0  0  0  0  0  0  0  0
    7.1167   -4.8375    0.0000 C   0  0  0  0  0  0  0  0  0  0  0  0
    7.4917   -5.4792    0.0000 C   0  0  0  0  0  0  0  0  0  0  0  0
  2  1  2  0
  3  1  1  0
  4  2  1  0
  5  6  1  0
  6  3  2  0
  7  3  1  0
  8  2  1  0
  9  4  1  0
 11 13  1  0
 12  6  1  0
 13 12  1  0
  4  5  2  0
M  END
>  <ID>  (477) 


>  <MOLENAME>  (477) 
OXIDOPAMINE HYDROCHLORIDE

>  <therap>  (477) 
adrenergic agonist (opthalmic)

>  <ref>  (477) 
Neurotoxic. Res. (2007), 11(3,4), 151-167; Brain Res. (1970), 24(2), 364-7; Br. J. Pharmacol. (1970), 40(4), 836-46

>  <cas#>  (477) 
28094-15-7

>  <source>  (477) 
synthetic

>  <status>  (477) 
USAN, INN

>  <tradename>  (477) 
nan

>  <SMILES>  (477) 
NCCc1c(O)cc(O)c(O)c1

>  <standardized_failed>  (477) 
False

$$$$

     RDKit          2D

 25 28  0  0  0  0  0  0  0  0999 V2000
    6.8750   -6.7917    0.0000 C   0  0  0  0  0  0  0  0  0  0  0  0
    7.5875   -6.5667    0.0000 C   0  0  0  0  0  0  0  0  0  0  0  0
    6.8750   -7.5417    0.0000 C   0  0  0  0  0  0  0  0  0  0  0  0
    4.9292   -8.6667    0.0000 C   0  0  0  0  0  0  0  0  0  0  0  0
    6.2250   -7.9167    0.0000 C   0  0  0  0  0  0  0  0  0  0  0  0
    5.5750   -7.5417    0.0000 C   0  0  0  0  0  0  0  0  0  0  0  0
    4.9292   -7.9167    0.0000 C   0  0  0  0  0  0  0  0  0  0  0  0
    7.7500   -5.8375    0.0000 C   0  0  0  0  0  0  0  0  0  0  0  0
    4.2875   -9.0417    0.0000 C   0  0  0  0  0  0  0  0  0  0  0  0
    6.2250   -6.4167    0.0000 C   0  0  0  0  0  0  0  0  0  0  0  0
    8.7000   -6.5667    0.0000 O   0  0  0  0  0  0  0  0  0  0  0  0
    5.5750   -6.7917    0.0000 C   0  0  0  0  0  0  0  0  0  0  0  0
    7.5875   -7.7750    0.0000 C   0  0  0  0  0  0  0  0  0  0  0  0
    6.2250   -8.6667    0.0000 C   0  0  0  0  0  0  0  0  0  0  0  0
    7.9125   -5.1042    0.0000 C   0  0  0  0  0  0  0  0  0  0  0  0
    4.2875   -7.5417    0.0000 C   0  0  0  0  0  0  0  0  0  0  0  0
    9.3250   -6.5667    0.0000 C   0  0  0  0  0  0  0  0  0  0  0  0
    8.0250   -7.1625    0.0000 C   0  0  0  0  0  0  0  0  0  0  0  0
    5.5750   -9.0417    0.0000 C   0  0  0  0  0  0  0  0  0  0  0  0
    3.6375   -8.6667    0.0000 C   0  0  0  0  0  0  0  0  0  0  0  0
    9.5125   -5.9042    0.0000 O   0  0  0  0  0  0  0  0  0  0  0  0
    2.9792   -9.0500    0.0000 O   0  0  0  0  0  0  0  0  0  0  0  0
    3.6375   -7.9167    0.0000 C   0  0  0  0  0  0  0  0  0  0  0  0
    6.8292   -5.8500    0.0000 C   0  0  0  0  0  0  0  0  0  0  0  0
    9.8250   -6.9042    0.0000 C   0  0  0  0  0  0  0  0  0  0  0  0
  2  1  1  0
  3  1  1  0
  4  7  1  0
  5  3  1  0
  6 12  1  0
  7  6  1  0
  2  8  1  6
  9  4  2  0
 10  1  1  0
  2 11  1  0
 12 10  1  0
 13  3  1  0
 14  5  1  0
 15  8  3  0
  7 16  1  6
 17 11  1  0
 18  2  1  0
 19 14  1  0
 20 23  1  0
 21 17  2  0
 22 20  2  0
 23 16  1  0
  1 24  1  1
 25 17  1  0
 18 13  1  0
  6  5  1  0
 19  4  1  0
 20  9  1  0
M  END
>  <ID>  (478) 


>  <MOLENAME>  (478) 
NORETHINDRONE ACETATE

>  <therap>  (478) 
Oral contraceptive (in combination with estrogen)

>  <ref>  (478) 
Am. J. Obstet. Gynecol. (2001), 185(2, Suppl.), S24-S31; Regul. Toxicol. Pharmacol. (2001), 34(1), 53-61; J. Am. Chem. Soc. (1959), 81, 436-8

>  <cas#>  (478) 
51-98-9

>  <source>  (478) 
synthetic; NSC-9564

>  <status>  (478) 
USP

>  <tradename>  (478) 
AYGESTIN

>  <SMILES>  (478) 
C#C[C@]1(OC(C)=O)CCC2C3CCC4=CC(=O)CC[C@@H]4C3CC[C@@]21C

>  <standardized_failed>  (478) 
False

$$$$

     RDKit          2D

 16 16  0  0  0  0  0  0  0  0999 V2000
    6.5667   -0.8750    0.0000 S   0  0  0  0  0  0  0  0  0  0  0  0
    2.8667   -0.4375    0.0000 C   0  0  0  0  0  0  0  0  0  0  0  0
    6.5667   -0.2042    0.0000 O   0  0  0  0  0  0  0  0  0  0  0  0
    5.8792   -0.8750    0.0000 O   0  0  0  0  0  0  0  0  0  0  0  0
    3.5167   -0.0542    0.0000 N   0  0  0  0  0  0  0  0  0  0  0  0
    2.2167   -0.0542    0.0000 C   0  0  0  0  0  0  0  0  0  0  0  0
    6.5667   -1.5417    0.0000 O   0  0  0  0  0  0  0  0  0  0  0  0
    7.2292   -0.8792    0.0000 O   0  0  0  0  0  0  0  0  0  0  0  0
    2.8667   -1.1917    0.0000 C   0  0  0  0  0  0  0  0  0  0  0  0
    2.2167    0.6958    0.0000 O   0  0  0  0  0  0  0  0  0  0  0  0
    1.5667   -1.1917    0.0000 C   0  0  0  0  0  0  0  0  0  0  0  0
    4.1792   -0.4375    0.0000 C   0  0  0  0  0  0  0  0  0  0  0  0
    1.5667   -0.4375    0.0000 C   0  0  0  0  0  0  0  0  0  0  0  0
    2.2167   -1.5667    0.0000 C   0  0  0  0  0  0  0  0  0  0  0  0
    3.5167   -1.5667    0.0000 C   0  0  0  0  0  0  0  0  0  0  0  0
    4.1792   -1.1917    0.0000 C   0  0  0  0  0  0  0  0  0  0  0  0
  3  1  2  0
  4  1  2  0
  5  2  2  0
  6  2  1  0
  7  1  1  0
  8  1  1  0
  9  2  1  0
 10  6  1  0
 11 14  2  0
 12  5  1  0
 13  6  2  0
 14  9  1  0
 15  9  2  0
 16 15  1  0
 11 13  1  0
 16 12  2  0
M  END
>  <ID>  (479) 


>  <MOLENAME>  (479) 
OXYQUINOLINE SULFATE

>  <therap>  (479) 
antiinfectant, complexing agent

>  <ref>  (479) 
Int J Toxicol 11:487 (1992); J Pharm Pharmacol 51:543 (1999)

>  <cas#>  (479) 
134-31-6, 148-24-3 (base)

>  <source>  (479) 
synthetic

>  <status>  (479) 
USAN

>  <tradename>  (479) 
nan

>  <SMILES>  (479) 
Oc1cccc2cccnc12

>  <standardized_failed>  (479) 
False

$$$$

     RDKit          2D

 33 33  0  0  0  0  0  0  0  0999 V2000
    9.2667   -3.8292    0.0000 C   0  0  0  0  0  0  0  0  0  0  0  0
    9.6375   -3.1917    0.0000 C   0  0  0  0  0  0  0  0  0  0  0  0
    8.9000   -4.4750    0.0000 C   0  0  0  0  0  0  0  0  0  0  0  0
    8.6042   -3.6792    0.0000 C   0  0  0  0  0  0  0  0  0  0  0  0
    4.1250   -6.2000    0.0000 C   0  0  0  0  0  0  0  0  0  0  0  0
    4.5000   -5.5500    0.0000 C   0  0  0  0  0  0  0  0  0  0  0  0
    9.2750   -2.5625    0.0000 C   0  0  0  0  0  0  0  0  0  0  0  0
    9.2667   -5.1042    0.0000 C   0  0  0  0  0  0  0  0  0  0  0  0
    8.2792   -3.1250    0.0000 O   0  0  0  0  0  0  0  0  0  0  0  0
    3.3667   -6.2000    0.0000 C   0  0  0  0  0  0  0  0  0  0  0  0
    8.5417   -2.5625    0.0000 O   0  0  0  0  0  0  0  0  0  0  0  0
   10.0000   -5.1042    0.0000 O   0  0  0  0  0  0  0  0  0  0  0  0
    5.2500   -5.5500    0.0000 C   0  0  0  0  0  0  0  0  0  0  0  0
    9.9042   -4.2042    0.0000 O   0  0  0  0  0  0  0  0  0  0  0  0
    8.1125   -4.2292    0.0000 O   0  0  0  0  0  0  0  0  0  0  0  0
    4.1250   -4.9000    0.0000 O   0  0  0  0  0  0  0  0  0  0  0  0
    4.5000   -2.9500    0.0000 N   0  0  0  0  0  0  0  0  0  0  0  0
    8.9000   -5.7417    0.0000 O   0  0  0  0  0  0  0  0  0  0  0  0
    9.6375   -1.9292    0.0000 O   0  0  0  0  0  0  0  0  0  0  0  0
    4.5000   -4.2500    0.0000 C   0  0  0  0  0  0  0  0  0  0  0  0
    4.5000   -6.8417    0.0000 C   0  0  0  0  0  0  0  0  0  0  0  0
    4.1250   -3.6000    0.0000 C   0  0  0  0  0  0  0  0  0  0  0  0
    2.9917   -5.5417    0.0000 C   0  0  0  0  0  0  0  0  0  0  0  0
    3.0000   -6.8417    0.0000 C   0  0  0  0  0  0  0  0  0  0  0  0
    5.6250   -6.1917    0.0000 C   0  0  0  0  0  0  0  0  0  0  0  0
    5.6250   -4.9000    0.0000 C   0  0  0  0  0  0  0  0  0  0  0  0
    5.2500   -2.9500    0.0000 C   0  0  0  0  0  0  0  0  0  0  0  0
    4.1250   -2.3042    0.0000 C   0  0  0  0  0  0  0  0  0  0  0  0
    4.1250   -7.4917    0.0000 C   0  0  0  0  0  0  0  0  0  0  0  0
    6.3750   -4.9000    0.0000 C   0  0  0  0  0  0  0  0  0  0  0  0
    3.3667   -7.4917    0.0000 C   0  0  0  0  0  0  0  0  0  0  0  0
    6.3750   -6.1917    0.0000 C   0  0  0  0  0  0  0  0  0  0  0  0
    6.7500   -5.5500    0.0000 C   0  0  0  0  0  0  0  0  0  0  0  0
  2  1  1  0
  3  1  1  0
  4  1  1  0
  6  5  1  0
  7  2  1  0
  8  3  1  0
  9  4  2  0
 10  5  2  0
 11  7  2  0
 12  8  2  0
 13  6  1  0
 14  1  1  0
 15  4  1  0
 16  6  1  0
 17 22  1  0
 18  8  1  0
 19  7  1  0
 20 16  1  0
 21  5  1  0
 22 20  1  0
 23 10  1  0
 24 10  1  0
 25 13  2  0
 26 13  1  0
 27 17  1  0
 28 17  1  0
 29 21  2  0
 30 26  2  0
 31 29  1  0
 32 25  1  0
 33 30  1  0
 31 24  2  0
 33 32  2  0
M  END
>  <ID>  (480) 


>  <MOLENAME>  (480) 
ORPHENADRINE CITRATE

>  <therap>  (480) 
muscle relaxant (skeletal), antihistaminic

>  <ref>  (480) 
J. Med. Pharm. Chem. (1960), 2, 57-77; Arzneim. Forsch. (1955), 5, 72-3; J. Int. Med. Res. (1991), 19(2), 71-87

>  <cas#>  (480) 
4682-36-4, 83-98-7 [orphenadrine]

>  <source>  (480) 
synthetic

>  <status>  (480) 
USP, INN, BAN

>  <tradename>  (480) 
NORFLEX

>  <SMILES>  (480) 
Cc1c(C(OCCN(C)C)c2ccccc2)cccc1

>  <standardized_failed>  (480) 
False

$$$$

     RDKit          2D

 24 25  0  0  0  0  0  0  0  0999 V2000
    7.5542   -4.5417    0.0000 N   0  0  0  0  0  0  0  0  0  0  0  0
    7.5542   -5.3667    0.0000 C   0  0  0  0  0  0  0  0  0  0  0  0
    6.7292   -4.5417    0.0000 C   0  0  0  0  0  0  0  0  0  0  0  0
    6.7292   -5.3667    0.0000 C   0  0  0  0  0  0  0  0  0  0  0  0
    8.3292   -4.2875    0.0000 C   0  0  0  0  0  0  0  0  0  0  0  0
    8.3417   -5.6167    0.0000 S   0  0  0  0  0  0  0  0  0  0  0  0
    8.8250   -4.9500    0.0000 C   0  0  0  0  0  0  0  0  0  0  0  0
    6.1542   -5.9500    0.0000 N   0  0  0  0  0  0  0  0  0  0  0  0
    8.3292   -3.4625    0.0000 C   0  0  0  0  0  0  0  0  0  0  0  0
    5.4167   -5.9667    0.0000 C   0  0  0  0  0  0  0  0  0  0  0  0
    6.1542   -3.9667    0.0000 O   0  0  0  0  0  0  0  0  0  0  0  0
    9.0417   -3.0500    0.0000 O   0  0  0  0  0  0  0  0  0  0  0  0
    7.6167   -3.0500    0.0000 O   0  0  0  0  0  0  0  0  0  0  0  0
    5.0417   -6.6167    0.0000 O   0  0  0  0  0  0  0  0  0  0  0  0
    5.0417   -5.3167    0.0000 C   0  0  0  0  0  0  0  0  0  0  0  0
    9.2042   -5.6792    0.0000 C   0  0  0  0  0  0  0  0  0  0  0  0
    9.5542   -4.5625    0.0000 C   0  0  0  0  0  0  0  0  0  0  0  0
    4.2917   -5.3167    0.0000 C   0  0  0  0  0  0  0  0  0  0  0  0
   10.2917   -3.4917    0.0000 K   0  0  0  0  0 15  0  0  0  0  0  0
    3.9167   -4.6667    0.0000 C   0  0  0  0  0  0  0  0  0  0  0  0
    3.9167   -5.9667    0.0000 C   0  0  0  0  0  0  0  0  0  0  0  0
    3.1667   -4.6667    0.0000 C   0  0  0  0  0  0  0  0  0  0  0  0
    3.1667   -5.9667    0.0000 C   0  0  0  0  0  0  0  0  0  0  0  0
    2.7917   -5.3167    0.0000 C   0  0  0  0  0  0  0  0  0  0  0  0
  2  1  1  0
  3  1  1  0
  4  3  1  0
  5  1  1  0
  2  6  1  6
  7  5  1  0
  4  8  1  6
  5  9  1  1
 10  8  1  0
 11  3  2  0
 12  9  1  0
 13  9  2  0
 14 10  2  0
 15 10  1  0
 16  7  1  0
 17  7  1  0
 18 15  1  0
 20 18  2  0
 21 18  1  0
 22 20  1  0
 23 21  2  0
 24 22  2  0
  6  7  1  0
  4  2  1  0
 23 24  1  0
M  CHG  2  12  -1  19   1
M  END
>  <ID>  (481) 


>  <MOLENAME>  (481) 
PENICILLIN G POTASSIUM

>  <therap>  (481) 
antibacterial

>  <ref>  (481) 
Avian Diseases 52:407 (2008) 

>  <cas#>  (481) 
69-57-8, 61-33-6 [penicillin, G]

>  <source>  (481) 
Penicillium spp

>  <status>  (481) 
USP, BAN, JAN

>  <tradename>  (481) 
PENTIDS

>  <SMILES>  (481) 
CC1(C)S[C@@H]2[C@H](NC(=O)Cc3ccccc3)C(=O)N2[C@H]1C(=O)O

>  <standardized_failed>  (481) 
False

$$$$

     RDKit          2D

 25 26  0  0  0  0  0  0  0  0999 V2000
    7.7417   -4.2292    0.0000 N   0  0  0  0  0  0  0  0  0  0  0  0
    7.7500   -5.0542    0.0000 C   0  0  0  0  0  0  0  0  0  0  0  0
    6.9250   -4.2292    0.0000 C   0  0  0  0  0  0  0  0  0  0  0  0
    6.9250   -5.0542    0.0000 C   0  0  0  0  0  0  0  0  0  0  0  0
    8.5250   -3.9750    0.0000 C   0  0  0  0  0  0  0  0  0  0  0  0
    8.5292   -5.3042    0.0000 S   0  0  0  0  0  0  0  0  0  0  0  0
    9.0167   -4.6375    0.0000 C   0  0  0  0  0  0  0  0  0  0  0  0
    8.5250   -3.1500    0.0000 C   0  0  0  0  0  0  0  0  0  0  0  0
    6.3417   -5.6375    0.0000 N   0  0  0  0  0  0  0  0  0  0  0  0
    5.9667   -6.2875    0.0000 C   0  0  0  0  0  0  0  0  0  0  0  0
    6.3417   -3.6542    0.0000 O   0  0  0  0  0  0  0  0  0  0  0  0
    9.2375   -2.7375    0.0000 O   0  0  0  0  0  0  0  0  0  0  0  0
    7.8042   -2.7375    0.0000 O   0  0  0  0  0  0  0  0  0  0  0  0
    6.3417   -6.9292    0.0000 O   0  0  0  0  0  0  0  0  0  0  0  0
    4.8417   -5.6417    0.0000 O   0  0  0  0  0  0  0  0  0  0  0  0
    5.2167   -6.2875    0.0000 C   0  0  0  0  0  0  0  0  0  0  0  0
    9.7500   -4.2500    0.0000 C   0  0  0  0  0  0  0  0  0  0  0  0
    9.3917   -5.3667    0.0000 C   0  0  0  0  0  0  0  0  0  0  0  0
    4.0917   -5.6417    0.0000 C   0  0  0  0  0  0  0  0  0  0  0  0
   10.1375   -3.4917    0.0000 K   0  0  0  0  0 15  0  0  0  0  0  0
    3.7167   -6.2875    0.0000 C   0  0  0  0  0  0  0  0  0  0  0  0
    3.7167   -4.9917    0.0000 C   0  0  0  0  0  0  0  0  0  0  0  0
    2.9667   -6.2875    0.0000 C   0  0  0  0  0  0  0  0  0  0  0  0
    2.9667   -4.9917    0.0000 C   0  0  0  0  0  0  0  0  0  0  0  0
    2.5917   -5.6417    0.0000 C   0  0  0  0  0  0  0  0  0  0  0  0
  2  1  1  0
  3  1  1  0
  4  3  1  0
  5  1  1  0
  2  6  1  6
  7  5  1  0
  5  8  1  1
  4  9  1  6
 10  9  1  0
 11  3  2  0
 12  8  1  0
 13  8  2  0
 14 10  2  0
 15 16  1  0
 16 10  1  0
 17  7  1  0
 18  7  1  0
 19 15  1  0
 21 19  2  0
 22 19  1  0
 23 21  1  0
 24 22  2  0
 25 23  2  0
  6  7  1  0
  2  4  1  0
 24 25  1  0
M  CHG  2  12  -1  20   1
M  END
>  <ID>  (482) 


>  <MOLENAME>  (482) 
PENICILLIN V POTASSIUM

>  <therap>  (482) 
antibacterial

>  <ref>  (482) 
Pediatrics 25:27 (1960)

>  <cas#>  (482) 
132-98-9, 87-08-1 [penicillin, V]

>  <source>  (482) 
semisynthetic

>  <status>  (482) 
USP, JAN

>  <tradename>  (482) 
BEEPEN-VK

>  <SMILES>  (482) 
CC1(C)S[C@@H]2[C@H](NC(=O)COc3ccccc3)C(=O)N2[C@H]1C(=O)O

>  <standardized_failed>  (482) 
False

$$$$

     RDKit          2D

 24 25  0  0  0  0  0  0  0  0999 V2000
    4.7542   -2.0625    0.0000 C   0  0  0  0  0  0  0  0  0  0  0  0
    1.4542   -2.0667    0.0000 C   0  0  0  0  0  0  0  0  0  0  0  0
    1.8667   -2.7750    0.0000 C   0  0  0  0  0  0  0  0  0  0  0  0
    1.8667   -1.3542    0.0000 C   0  0  0  0  0  0  0  0  0  0  0  0
    5.1667   -2.7750    0.0000 C   0  0  0  0  0  0  0  0  0  0  0  0
    5.1542   -1.3417    0.0000 C   0  0  0  0  0  0  0  0  0  0  0  0
    3.1042   -2.0625    0.0000 C   0  0  0  0  0  0  0  0  0  0  0  0
    3.9292   -2.0625    0.0000 O   0  0  0  0  0  0  0  0  0  0  0  0
    8.4667   -2.7542    0.0000 C   0  0  0  0  0  0  0  0  0  0  0  0
    2.6917   -1.3500    0.0000 C   0  0  0  0  0  0  0  0  0  0  0  0
    2.6917   -2.7750    0.0000 C   0  0  0  0  0  0  0  0  0  0  0  0
    6.4000   -2.0542    0.0000 C   0  0  0  0  0  0  0  0  0  0  0  0
    7.6417   -2.7625    0.0000 C   0  0  0  0  0  0  0  0  0  0  0  0
    5.9792   -1.3417    0.0000 C   0  0  0  0  0  0  0  0  0  0  0  0
    5.9917   -2.7667    0.0000 C   0  0  0  0  0  0  0  0  0  0  0  0
    7.2250   -2.0500    0.0000 C   0  0  0  0  0  0  0  0  0  0  0  0
    8.8750   -2.0375    0.0000 O   0  0  0  0  0  0  0  0  0  0  0  0
    1.4500   -0.6417    0.0000 I   0  0  0  0  0  0  0  0  0  0  0  0
    1.4542   -3.4875    0.0000 I   0  0  0  0  0  0  0  0  0  0  0  0
    4.7375   -0.6375    0.0000 I   0  0  0  0  0  0  0  0  0  0  0  0
    4.7542   -3.4917    0.0000 I   0  0  0  0  0  0  0  0  0  0  0  0
    0.6292   -2.0667    0.0000 O   0  0  0  0  0  0  0  0  0  0  0  0
    7.2292   -3.4792    0.0000 N   0  0  0  0  0  0  0  0  0  0  0  0
    8.8792   -3.4667    0.0000 O   0  0  0  0  0  0  0  0  0  0  0  0
  2  3  2  0
  3 11  1  0
  4 10  2  0
  5  1  2  0
  6  1  1  0
  7  8  1  0
  8  1  1  0
  9 13  1  0
 10  7  1  0
 11  7  2  0
 12 14  1  0
 13 16  1  0
 14  6  2  0
 15  5  1  0
 16 12  1  0
 17  9  2  0
 18  4  1  0
 19  3  1  0
 20  6  1  0
 21  5  1  0
 22  2  1  0
 13 23  1  1
 24  9  1  0
 15 12  2  0
  4  2  1  0
M  END
>  <ID>  (483) 


>  <MOLENAME>  (483) 
LEVOTHYROXINE

>  <therap>  (483) 
antihypercholesterimic, thyromimetic

>  <ref>  (483) 
Biochem J 20: 293, 300 (1926)

>  <cas#>  (483) 
51-48-9

>  <source>  (483) 
thyroid gland

>  <status>  (483) 
USP, INN, BAN, JAN

>  <tradename>  (483) 
SYNTHROID

>  <SMILES>  (483) 
N[C@@H](Cc1cc(I)c(Oc2cc(I)c(O)c(I)c2)c(I)c1)C(=O)O

>  <standardized_failed>  (483) 
False

$$$$

     RDKit          2D

 13 12  0  0  0  0  0  0  0  0999 V2000
    5.7792   -4.8292    0.0000 C   0  0  0  0  0  0  0  0  0  0  0  0
    5.3667   -5.5500    0.0000 C   0  0  0  0  0  0  0  0  0  0  0  0
    6.6167   -4.8292    0.0000 C   0  0  0  0  0  0  0  0  0  0  0  0
    4.5417   -5.5417    0.0000 C   0  0  0  0  0  0  0  0  0  0  0  0
    7.8417   -4.1042    0.0000 N   0  0  0  0  0  0  0  0  0  0  0  0
    8.8250   -4.5917    0.0000 Cl  0  0  0  0  0  0  0  0  0  0  0  0
    7.0292   -5.5417    0.0000 O   0  0  0  0  0  0  0  0  0  0  0  0
    4.1167   -6.2542    0.0000 O   0  0  0  0  0  0  0  0  0  0  0  0
    5.3750   -4.1167    0.0000 C   0  0  0  0  0  0  0  0  0  0  0  0
    4.5417   -4.1167    0.0000 C   0  0  0  0  0  0  0  0  0  0  0  0
    7.0250   -4.1125    0.0000 C   0  0  0  0  0  0  0  0  0  0  0  0
    4.1292   -4.8375    0.0000 C   0  0  0  0  0  0  0  0  0  0  0  0
    8.2542   -3.3917    0.0000 C   0  0  0  0  0  0  0  0  0  0  0  0
  2  1  2  0
  3  1  1  0
  4  2  1  0
  5 11  1  0
  3  7  1  6
  8  4  1  0
  9  1  1  0
 10  9  2  0
 11  3  1  0
 12 10  1  0
 13  5  1  0
  4 12  2  0
M  END
>  <ID>  (484) 


>  <MOLENAME>  (484) 
PHENYLEPHRINE HYDROCHLORIDE

>  <therap>  (484) 
mydriatic, decongestant

>  <ref>  (484) 
J Pharmacol Exp Ther 86:284 (1946); Anal Profiles Drug Subs 3:483 (1974)

>  <cas#>  (484) 
61-76-7, 59-42-7 [phenylephrine]

>  <source>  (484) 
synthetic

>  <status>  (484) 
USP, INN, BAN, JAN

>  <tradename>  (484) 
AFRIN

>  <SMILES>  (484) 
CNC[C@H](O)c1cc(O)ccc1

>  <standardized_failed>  (484) 
False

$$$$

     RDKit          2D

 20 21  0  0  0  0  0  0  0  0999 V2000
    4.1708   -4.5458    0.0000 N   0  0  0  0  0  0  0  0  0  0  0  0
    4.1667   -3.7208    0.0000 C   0  0  0  0  0  0  0  0  0  0  0  0
    3.4583   -4.9625    0.0000 C   0  0  0  0  0  0  0  0  0  0  0  0
    3.4583   -5.7917    0.0000 C   0  0  0  0  0  0  0  0  0  0  0  0
    4.8792   -5.7875    0.0000 C   0  0  0  0  0  0  0  0  0  0  0  0
    4.1667   -6.2000    0.0000 C   0  0  0  0  0  0  0  0  0  0  0  0
    4.8833   -3.3083    0.0000 C   0  0  0  0  0  0  0  0  0  0  0  0
    3.4542   -3.3167    0.0000 C   0  0  0  0  0  0  0  0  0  0  0  0
    2.7417   -6.2042    0.0000 C   0  0  0  0  0  0  0  0  0  0  0  0
    4.8792   -4.9625    0.0000 O   0  0  0  0  0  0  0  0  0  0  0  0
    2.7417   -4.5500    0.0000 C   0  0  0  0  0  0  0  0  0  0  0  0
    2.0292   -5.7917    0.0000 C   0  0  0  0  0  0  0  0  0  0  0  0
    5.5958   -3.7208    0.0000 Cl  0  0  0  0  0  0  0  0  0  0  0  0
    2.7417   -3.7375    0.0000 F   0  0  0  0  0  0  0  0  0  0  0  0
    5.5917   -6.1917    0.0000 O   0  0  0  0  0  0  0  0  0  0  0  0
    2.0292   -4.9625    0.0000 C   0  0  0  0  0  0  0  0  0  0  0  0
    4.1625   -2.0750    0.0000 C   0  0  0  0  0  0  0  0  0  0  0  0
    4.8792   -2.4875    0.0000 C   0  0  0  0  0  0  0  0  0  0  0  0
    3.4458   -2.4958    0.0000 C   0  0  0  0  0  0  0  0  0  0  0  0
    1.3125   -6.2042    0.0000 C   0  0  0  0  0  0  0  0  0  0  0  0
  2  1  1  0
  3  1  1  0
  4  3  2  0
  5  6  1  0
  6  4  1  0
  7  2  2  0
  8  2  1  0
  9  4  1  0
 10  5  2  0
 11  3  1  0
 12  9  2  0
 13  7  1  0
 14  8  1  0
 15  5  1  0
 16 11  2  0
 17 19  1  0
 18  7  1  0
 19  8  2  0
 20 12  1  0
 17 18  2  0
 12 16  1  0
M  END
>  <ID>  (485) 


>  <MOLENAME>  (485) 
LUMIRACOXIB

>  <therap>  (485) 
antiinflammatory, analgesic, antiarthritic

>  <ref>  (485) 
Br. J. Pharmacol. (2005), 144(4), 538-550; Drugs (2004), 64(19), 2237-2246; Int. J. Clin. Pract. (2004), 58(6), 606-611

>  <cas#>  (485) 
220991-20-8

>  <source>  (485) 
synthetic; COX-189

>  <status>  (485) 
USAN, INN, BAN

>  <tradename>  (485) 
PREXIGE

>  <SMILES>  (485) 
Cc1cc(CC(=O)O)c(Nc2c(Cl)cccc2F)cc1

>  <standardized_failed>  (485) 
False

$$$$

     RDKit          2D

 30 32  0  0  0  0  0  0  0  0999 V2000
    5.1375   -3.5417    0.0000 C   0  0  0  0  0  0  0  0  0  0  0  0
    5.1375   -2.2042    0.0000 N   0  0  0  0  0  0  0  0  0  0  0  0
    5.6250   -2.8667    0.0000 C   0  0  0  0  0  0  0  0  0  0  0  0
    4.3542   -3.2875    0.0000 C   0  0  0  0  0  0  0  0  0  0  0  0
    4.3542   -2.4625    0.0000 C   0  0  0  0  0  0  0  0  0  0  0  0
    6.4125   -3.1250    0.0000 N   0  0  0  0  0  0  0  0  0  0  0  0
    8.8500   -3.8750    0.0000 C   0  0  0  0  0  0  0  0  0  0  0  0
    8.2750   -3.5417    0.0000 C   0  0  0  0  0  0  0  0  0  0  0  0
    5.6292   -4.2125    0.0000 C   0  0  0  0  0  0  0  0  0  0  0  0
    2.1917   -4.5250    0.0000 C   0  0  0  0  0  0  0  0  0  0  0  0
    3.6417   -2.0500    0.0000 C   0  0  0  0  0  0  0  0  0  0  0  0
    3.6417   -3.7000    0.0000 C   0  0  0  0  0  0  0  0  0  0  0  0
    6.4167   -3.9500    0.0000 C   0  0  0  0  0  0  0  0  0  0  0  0
    8.8500   -4.5417    0.0000 C   0  0  0  0  0  0  0  0  0  0  0  0
    2.2042   -3.7000    0.0000 O   0  0  0  0  0  0  0  0  0  0  0  0
    2.9250   -3.2875    0.0000 C   0  0  0  0  0  0  0  0  0  0  0  0
    2.9167   -4.9375    0.0000 O   0  0  0  0  0  0  0  0  0  0  0  0
    8.2750   -2.8667    0.0000 O   0  0  0  0  0  0  0  0  0  0  0  0
    1.4875   -4.9375    0.0000 N   0  0  0  0  0  0  0  0  0  0  0  0
    5.3917   -1.4167    0.0000 C   0  0  0  0  0  0  0  0  0  0  0  0
    4.4667   -4.0292    0.0000 C   0  0  0  0  0  0  0  0  0  0  0  0
    2.9250   -2.4625    0.0000 C   0  0  0  0  0  0  0  0  0  0  0  0
    7.6875   -3.8750    0.0000 O   0  0  0  0  0  0  0  0  0  0  0  0
    8.2667   -4.8792    0.0000 O   0  0  0  0  0  0  0  0  0  0  0  0
    9.4292   -3.5375    0.0000 C   0  0  0  0  0  0  0  0  0  0  0  0
    7.0917   -2.6375    0.0000 C   0  0  0  0  0  0  0  0  0  0  0  0
    9.4292   -4.8792    0.0000 C   0  0  0  0  0  0  0  0  0  0  0  0
    1.4875   -5.7667    0.0000 C   0  0  0  0  0  0  0  0  0  0  0  0
   10.0125   -3.8667    0.0000 C   0  0  0  0  0  0  0  0  0  0  0  0
   10.0125   -4.5417    0.0000 C   0  0  0  0  0  0  0  0  0  0  0  0
  3  2  1  1
  3  1  1  0
  4  1  1  0
  5  4  2  0
  6  3  1  0
  8  7  1  0
  1  9  1  0
 10 15  1  0
 11  5  1  0
 12  4  1  0
 13  9  1  0
 14  7  2  0
 15 16  1  0
 16 12  2  0
 17 10  2  0
 18  8  2  0
 19 10  1  0
 20  2  1  0
  1 21  1  6
 22 11  2  0
 23  8  1  0
 24 14  1  0
 25  7  1  0
 26  6  1  0
 27 14  1  0
 28 19  1  0
 29 25  2  0
 30 29  1  0
  6 13  1  0
  5  2  1  0
 22 16  1  0
 27 30  2  0
M  END
>  <ID>  (486) 


>  <MOLENAME>  (486) 
PHYSOSTIGMINE SALICYLATE

>  <therap>  (486) 
cholinergic, anticholinesterase, miotic

>  <ref>  (486) 
J Chem Soc 1954: 3651

>  <cas#>  (486) 
57-64-7, 57-47-6 [physostigmine]

>  <source>  (486) 
Physostigma venenosum

>  <status>  (486) 
USP, JAN

>  <tradename>  (486) 
ANTILIRIUM

>  <SMILES>  (486) 
CNC(=O)Oc1cc2c(cc1)N(C)[C@H]1N(C)CC[C@@]21C

>  <standardized_failed>  (486) 
False

$$$$

     RDKit          2D

 19 19  0  0  0  0  0  0  0  0999 V2000
    8.3125   -6.1792    0.0000 N   0  0  0  0  0  0  0  0  0  0  0  0
    6.1042   -6.5000    0.0000 C   0  0  0  0  0  0  0  0  0  0  0  0
    5.5917   -5.8542    0.0000 N   0  0  0  0  0  0  0  0  0  0  0  0
    6.9417   -9.1167    0.0000 C   0  0  0  0  0  0  0  0  0  0  0  0
    6.8375   -5.3875    0.0000 N   0  0  0  0  0  0  0  0  0  0  0  0
    7.5792   -8.6167    0.0000 O   0  0  0  0  0  0  0  0  0  0  0  0
    6.4667   -7.8875    0.0000 C   0  0  0  0  0  0  0  0  0  0  0  0
    5.8792   -7.3000    0.0000 C   0  0  0  0  0  0  0  0  0  0  0  0
    6.0417   -5.1750    0.0000 C   0  0  0  0  0  0  0  0  0  0  0  0
    6.2542   -8.6667    0.0000 C   0  0  0  0  0  0  0  0  0  0  0  0
    6.8750   -6.2042    0.0000 C   0  0  0  0  0  0  0  0  0  0  0  0
    8.9000   -6.5167    0.0000 O   0  0  0  0  0  0  0  0  0  0  0  0
    8.3167   -5.5042    0.0000 O   0  0  0  0  0  0  0  0  0  0  0  0
    7.2917   -7.8417    0.0000 C   0  0  0  0  0  0  0  0  0  0  0  0
    6.9917   -9.9417    0.0000 O   0  0  0  0  0  0  0  0  0  0  0  0
    7.7167   -6.5167    0.0000 O   0  0  0  0  0  0  0  0  0  0  0  0
    4.7667   -5.8917    0.0000 C   0  0  0  0  0  0  0  0  0  0  0  0
    5.4750   -8.9542    0.0000 C   0  0  0  0  0  0  0  0  0  0  0  0
    4.8417   -8.4292    0.0000 C   0  0  0  0  0  0  0  0  0  0  0  0
  3  2  1  0
  4 10  1  0
  5 11  1  0
  6 14  1  0
  7  8  1  1
  8  2  1  0
  9  3  1  0
 10  7  1  0
 11  2  2  0
 12  1  1  0
 13  1  2  0
 14  7  1  0
 15  4  2  0
 16  1  1  0
 17  3  1  0
 10 18  1  1
 19 18  1  0
  9  5  2  0
  6  4  1  0
M  CHG  2   1   1  12  -1
M  END
>  <ID>  (487) 


>  <MOLENAME>  (487) 
PILOCARPINE NITRATE

>  <therap>  (487) 
antiglaucoma agent, miotic

>  <ref>  (487) 
Boll Chim Farm106:8 (1967); Anal Profiles Drug Subs 12:385 (1983)

>  <cas#>  (487) 
148-72-1, 92-13-7 [pilocarpine]

>  <source>  (487) 
Pilocarpus spp.

>  <status>  (487) 
USP

>  <tradename>  (487) 
PILAGAN

>  <SMILES>  (487) 
CC[C@@H]1C(=O)OC[C@@H]1Cc1cncn1C

>  <standardized_failed>  (487) 
False

$$$$

     RDKit          2D

 18 19  0  0  0  0  0  0  0  0999 V2000
    6.2042   -1.4417    0.0000 C   0  0  0  0  0  0  0  0  0  0  0  0
    6.9917   -0.3667    0.0000 N   0  0  0  0  0  0  0  0  0  0  0  0
    6.2042   -0.6167    0.0000 C   0  0  0  0  0  0  0  0  0  0  0  0
    7.4750   -1.0292    0.0000 C   0  0  0  0  0  0  0  0  0  0  0  0
    5.4917   -1.8542    0.0000 C   0  0  0  0  0  0  0  0  0  0  0  0
    6.9917   -1.7000    0.0000 C   0  0  0  0  0  0  0  0  0  0  0  0
    5.4917   -2.6792    0.0000 O   0  0  0  0  0  0  0  0  0  0  0  0
    6.2167   -3.9250    0.0000 N   0  0  0  0  0  0  0  0  0  0  0  0
    4.7792   -3.9250    0.0000 C   0  0  0  0  0  0  0  0  0  0  0  0
    4.7792   -3.0917    0.0000 C   0  0  0  0  0  0  0  0  0  0  0  0
    5.5000   -4.3375    0.0000 C   0  0  0  0  0  0  0  0  0  0  0  0
    4.0667   -4.3375    0.0000 O   0  0  0  0  0  0  0  0  0  0  0  0
    4.7792   -0.6167    0.0000 C   0  0  0  0  0  0  0  0  0  0  0  0
    6.9292   -4.3375    0.0000 C   0  0  0  0  0  0  0  0  0  0  0  0
    5.4917   -0.2042    0.0000 C   0  0  0  0  0  0  0  0  0  0  0  0
    4.7792   -1.4417    0.0000 C   0  0  0  0  0  0  0  0  0  0  0  0
    6.9292   -5.1667    0.0000 C   0  0  0  0  0  0  0  0  0  0  0  0
    7.6417   -3.9250    0.0000 C   0  0  0  0  0  0  0  0  0  0  0  0
  2  3  1  0
  3  1  2  0
  4  6  2  0
  5  1  1  0
  6  1  1  0
  7  5  1  0
  8 11  1  0
  9 10  1  0
 10  7  1  0
 11  9  1  0
 12  9  1  0
 13 16  1  0
 14  8  1  0
 15  3  1  0
 16  5  2  0
 17 14  1  0
 18 14  1  0
  4  2  1  0
 15 13  2  0
M  END
>  <ID>  (488) 


>  <MOLENAME>  (488) 
PINDOLOL

>  <therap>  (488) 
antihypertensive, antianginal, antiarrhythmic, antiglaucoma

>  <ref>  (488) 
Am Heart J 104 Suppl 2(2):333 (1982); Neurochem Res 21:557 (1996)

>  <cas#>  (488) 
13523-86-9

>  <source>  (488) 
synthetic; LB-46

>  <status>  (488) 
USP, INN, BAN, JAN

>  <tradename>  (488) 
VISKEN

>  <SMILES>  (488) 
CC(C)NCC(O)COc1cccc2c1cc[nH]2

>  <standardized_failed>  (488) 
False

$$$$

     RDKit          2D

 37 39  0  0  0  0  0  0  0  0999 V2000
    7.7792   -3.0875    0.0000 N   0  0  0  0  0  0  0  0  0  0  0  0
    7.7875   -3.9125    0.0000 C   0  0  0  0  0  0  0  0  0  0  0  0
    4.1000   -6.7167    0.0000 N   0  0  0  0  0  0  0  0  0  0  0  0
    6.9625   -3.0875    0.0000 C   0  0  0  0  0  0  0  0  0  0  0  0
    6.9625   -3.9125    0.0000 C   0  0  0  0  0  0  0  0  0  0  0  0
    3.3042   -6.5042    0.0000 C   0  0  0  0  0  0  0  0  0  0  0  0
    8.5625   -2.8292    0.0000 C   0  0  0  0  0  0  0  0  0  0  0  0
    4.6750   -6.1375    0.0000 C   0  0  0  0  0  0  0  0  0  0  0  0
    8.5667   -4.1625    0.0000 S   0  0  0  0  0  0  0  0  0  0  0  0
    9.0542   -3.4917    0.0000 C   0  0  0  0  0  0  0  0  0  0  0  0
    2.7167   -7.0917    0.0000 C   0  0  0  0  0  0  0  0  0  0  0  0
    6.3792   -4.4917    0.0000 N   0  0  0  0  0  0  0  0  0  0  0  0
    4.4500   -5.3417    0.0000 N   0  0  0  0  0  0  0  0  0  0  0  0
    5.8125   -4.9542    0.0000 C   0  0  0  0  0  0  0  0  0  0  0  0
    2.9292   -7.8792    0.0000 N   0  0  0  0  0  0  0  0  0  0  0  0
    5.0250   -4.7542    0.0000 C   0  0  0  0  0  0  0  0  0  0  0  0
    8.5625   -2.0042    0.0000 C   0  0  0  0  0  0  0  0  0  0  0  0
    4.3167   -7.5167    0.0000 C   0  0  0  0  0  0  0  0  0  0  0  0
    6.3792   -2.5042    0.0000 O   0  0  0  0  0  0  0  0  0  0  0  0
    3.0875   -5.7042    0.0000 O   0  0  0  0  0  0  0  0  0  0  0  0
    5.4667   -6.3417    0.0000 O   0  0  0  0  0  0  0  0  0  0  0  0
    3.7375   -8.1000    0.0000 C   0  0  0  0  0  0  0  0  0  0  0  0
    1.9167   -6.9042    0.0000 O   0  0  0  0  0  0  0  0  0  0  0  0
    6.0417   -5.7500    0.0000 O   0  0  0  0  0  0  0  0  0  0  0  0
    9.2125   -1.6292    0.0000 O   0  0  0  0  0  0  0  0  0  0  0  0
    7.8417   -1.5917    0.0000 O   0  0  0  0  0  0  0  0  0  0  0  0
    4.7917   -3.9667    0.0000 C   0  0  0  0  0  0  0  0  0  0  0  0
    9.4292   -4.2167    0.0000 C   0  0  0  0  0  0  0  0  0  0  0  0
    9.7875   -3.1042    0.0000 C   0  0  0  0  0  0  0  0  0  0  0  0
    2.3417   -8.4417    0.0000 C   0  0  0  0  0  0  0  0  0  0  0  0
   10.3000   -1.6042    0.0000 Na  0  0  0  0  0 15  0  0  0  0  0  0
    3.9917   -3.7667    0.0000 C   0  0  0  0  0  0  0  0  0  0  0  0
    5.3667   -3.3750    0.0000 C   0  0  0  0  0  0  0  0  0  0  0  0
    1.5542   -8.2167    0.0000 C   0  0  0  0  0  0  0  0  0  0  0  0
    5.1417   -2.5875    0.0000 C   0  0  0  0  0  0  0  0  0  0  0  0
    3.7667   -2.9750    0.0000 C   0  0  0  0  0  0  0  0  0  0  0  0
    4.3417   -2.3792    0.0000 C   0  0  0  0  0  0  0  0  0  0  0  0
  2  1  1  0
  3  8  1  0
  4  1  1  0
  5  4  1  0
  6  3  1  0
  7  1  1  0
  8 13  1  0
  2  9  1  6
 10  7  1  0
 11  6  1  0
  5 12  1  6
 13 16  1  0
 14 12  1  0
 15 22  1  0
 16 14  1  0
  7 17  1  1
 18  3  1  0
 19  4  2  0
 20  6  2  0
 21  8  2  0
 22 18  1  0
 23 11  2  0
 24 14  2  0
 25 17  1  0
 26 17  2  0
 27 16  1  0
 28 10  1  0
 29 10  1  0
 30 15  1  0
 32 27  2  0
 33 27  1  0
 34 30  1  0
 35 33  2  0
 36 32  1  0
 37 36  2  0
  9 10  1  0
  5  2  1  0
 35 37  1  0
 15 11  1  0
M  CHG  2  25  -1  31   1
M  END
>  <ID>  (489) 


>  <MOLENAME>  (489) 
PIPERACILLIN SODIUM

>  <therap>  (489) 
antibacterial

>  <ref>  (489) 
Chemotherapy (Tokyo) 25:816 (1977); 36 Suppl 7:1 (1988); Clin Ther 7 Suppl B:28, 36 (1985)

>  <cas#>  (489) 
59703-84-3, 66258-76-2 [piperacillin], 61477-96-1 [anhydrous]

>  <source>  (489) 
semisynthetic; T-1220, CL-227193

>  <status>  (489) 
USP, INN, BAN, JAN

>  <tradename>  (489) 
PIPRACIL

>  <SMILES>  (489) 
CCN1CCN(C(=O)NC(C(=O)N[C@@H]2C(=O)N3[C@@H](C(=O)O)C(C)(C)S[C@H]23)c2ccccc2)C(=O)C1=O

>  <standardized_failed>  (489) 
False

$$$$

     RDKit          2D

 23 24  0  0  0  0  0  0  0  0999 V2000
    3.3000   -3.6250    0.0000 C   0  0  0  0  0  0  0  0  0  0  0  0
    4.0167   -4.0375    0.0000 N   0  0  0  0  0  0  0  0  0  0  0  0
    4.7292   -3.6250    0.0000 C   0  0  0  0  0  0  0  0  0  0  0  0
    5.4417   -4.0375    0.0000 C   0  0  0  0  0  0  0  0  0  0  0  0
    2.5875   -4.0375    0.0000 C   0  0  0  0  0  0  0  0  0  0  0  0
    3.3000   -2.8000    0.0000 O   0  0  0  0  0  0  0  0  0  0  0  0
    4.7292   -2.8000    0.0000 C   0  0  0  0  0  0  0  0  0  0  0  0
    5.4417   -4.8625    0.0000 O   0  0  0  0  0  0  0  0  0  0  0  0
    1.1542   -4.8542    0.0000 C   0  0  0  0  0  0  0  0  0  0  0  0
    2.5917   -4.8625    0.0000 C   0  0  0  0  0  0  0  0  0  0  0  0
    1.8750   -3.6167    0.0000 C   0  0  0  0  0  0  0  0  0  0  0  0
    1.1625   -4.0292    0.0000 C   0  0  0  0  0  0  0  0  0  0  0  0
    1.8750   -5.2667    0.0000 C   0  0  0  0  0  0  0  0  0  0  0  0
    6.1542   -3.6250    0.0000 O   0  0  0  0  0  0  0  0  0  0  0  0
    0.4417   -5.2667    0.0000 C   0  0  0  0  0  0  0  0  0  0  0  0
    5.4417   -2.3875    0.0000 C   0  0  0  0  0  0  0  0  0  0  0  0
    0.4417   -6.0917    0.0000 C   0  0  0  0  0  0  0  0  0  0  0  0
   -0.2708   -4.8500    0.0000 C   0  0  0  0  0  0  0  0  0  0  0  0
    6.1542   -2.8042    0.0000 C   0  0  0  0  0  0  0  0  0  0  0  0
    5.4417   -1.5667    0.0000 C   0  0  0  0  0  0  0  0  0  0  0  0
    6.1500   -1.1542    0.0000 C   0  0  0  0  0  0  0  0  0  0  0  0
    6.8667   -2.3917    0.0000 C   0  0  0  0  0  0  0  0  0  0  0  0
    6.8667   -1.5667    0.0000 C   0  0  0  0  0  0  0  0  0  0  0  0
  2  1  1  0
  3  2  1  0
  3  4  1  0
  5  1  1  1
  6  1  2  0
  3  7  1  1
  8  4  2  0
  9 12  1  0
 10  5  1  0
 11  5  1  0
 12 11  1  0
 13 10  1  0
 14  4  1  0
  9 15  1  6
 16  7  1  0
 17 15  1  0
 18 15  1  0
 19 16  2  0
 20 16  1  0
 21 20  2  0
 22 19  1  0
 23 21  1  0
 13  9  1  0
 23 22  2  0
M  END
>  <ID>  (490) 


>  <MOLENAME>  (490) 
NATEGLINIDE

>  <therap>  (490) 
antidiabetic

>  <ref>  (490) 
Diabetes Res Clin Pract 12:53 (1991); Yakuri To Chiryo 25 Suppl 1:S5, S9 (1997)

>  <cas#>  (490) 
105816-04-4

>  <source>  (490) 
synthetic; A-4166, DJN-608

>  <status>  (490) 
USAN, INN, BAN

>  <tradename>  (490) 
STARLIX

>  <SMILES>  (490) 
CC(C)[C@H]1CC[C@H](C(=O)N[C@@H](Cc2ccccc2)C(=O)O)CC1

>  <standardized_failed>  (490) 
False

$$$$

     RDKit          2D

 23 25  0  0  0  0  0  0  0  0999 V2000
    4.7250   -2.7375    0.0000 S   0  0  0  0  0  0  0  0  0  0  0  0
    5.3792   -3.1167    0.0000 N   0  0  0  0  0  0  0  0  0  0  0  0
    5.3792   -3.8667    0.0000 C   0  0  0  0  0  0  0  0  0  0  0  0
    4.7250   -4.2417    0.0000 C   0  0  0  0  0  0  0  0  0  0  0  0
    6.0292   -4.2417    0.0000 C   0  0  0  0  0  0  0  0  0  0  0  0
    4.0667   -3.1167    0.0000 C   0  0  0  0  0  0  0  0  0  0  0  0
    4.0667   -3.8667    0.0000 C   0  0  0  0  0  0  0  0  0  0  0  0
    6.6792   -3.8667    0.0000 N   0  0  0  0  0  0  0  0  0  0  0  0
    5.3292   -1.9625    0.0000 O   0  0  0  0  0  0  0  0  0  0  0  0
    4.1750   -1.9917    0.0000 O   0  0  0  0  0  0  0  0  0  0  0  0
    7.3250   -4.2417    0.0000 C   0  0  0  0  0  0  0  0  0  0  0  0
    6.0292   -4.9917    0.0000 O   0  0  0  0  0  0  0  0  0  0  0  0
    7.3250   -4.9917    0.0000 N   0  0  0  0  0  0  0  0  0  0  0  0
    4.7250   -4.9917    0.0000 O   0  0  0  0  0  0  0  0  0  0  0  0
    6.0292   -2.7417    0.0000 C   0  0  0  0  0  0  0  0  0  0  0  0
    3.4167   -4.2417    0.0000 C   0  0  0  0  0  0  0  0  0  0  0  0
    3.4167   -2.7375    0.0000 C   0  0  0  0  0  0  0  0  0  0  0  0
    7.9750   -5.3667    0.0000 C   0  0  0  0  0  0  0  0  0  0  0  0
    7.9750   -3.8667    0.0000 C   0  0  0  0  0  0  0  0  0  0  0  0
    2.7667   -3.8667    0.0000 C   0  0  0  0  0  0  0  0  0  0  0  0
    2.7667   -3.1167    0.0000 C   0  0  0  0  0  0  0  0  0  0  0  0
    8.6250   -4.9917    0.0000 C   0  0  0  0  0  0  0  0  0  0  0  0
    8.6250   -4.2417    0.0000 C   0  0  0  0  0  0  0  0  0  0  0  0
  2  1  1  0
  3  2  1  0
  4  7  1  0
  5  3  1  0
  6  1  1  0
  7  6  2  0
  8  5  1  0
  9  1  2  0
 10  1  2  0
 11  8  1  0
 12  5  2  0
 13 11  2  0
 14  4  1  0
 15  2  1  0
 16  7  1  0
 17  6  1  0
 18 13  1  0
 19 11  1  0
 20 21  1  0
 21 17  2  0
 22 23  1  0
 23 19  2  0
  3  4  2  0
 20 16  2  0
 22 18  2  0
M  END
>  <ID>  (491) 


>  <MOLENAME>  (491) 
PIROXICAM

>  <therap>  (491) 
antiinflammatory

>  <ref>  (491) 
Drugs 22:165 (1981); 28:292 (1984); Am J Med 81 Suppl 5B:1 (1986)

>  <cas#>  (491) 
36322-90-4

>  <source>  (491) 
synthetic; CP-16171

>  <status>  (491) 
USP, INN, BAN, JAN

>  <tradename>  (491) 
FELDENE

>  <SMILES>  (491) 
CN1C(C(=O)Nc2ncccc2)=C(O)c2c(cccc2)S1(=O)=O

>  <standardized_failed>  (491) 
False

$$$$

     RDKit          2D

 90 90  0  0  0  0  0  0  0  0999 V2000
   10.1042   -4.0375    0.0000 N   0  0  0  0  0  0  0  0  0  0  0  0
    1.7042   -7.7417    0.0000 S   0  0  0  0  0  0  0  0  0  0  0  0
    9.0417   -4.6625    0.0000 C   0  0  0  0  0  0  0  0  0  0  0  0
    5.9542   -3.1625    0.0000 C   0  0  0  0  0  0  0  0  0  0  0  0
    5.9542   -3.8792    0.0000 C   0  0  0  0  0  0  0  0  0  0  0  0
    9.9625  -10.0042    0.0000 N   0  0  0  0  0  0  0  0  0  0  0  0
    7.7375   -9.7167    0.0000 N   0  0  0  0  0  0  0  0  0  0  0  0
    5.2667   -2.7542    0.0000 N   0  0  0  0  0  0  0  0  0  0  0  0
   11.7625   -8.0167    0.0000 N   0  0  0  0  0  0  0  0  0  0  0  0
   11.1042   -4.4125    0.0000 C   0  0  0  0  0  0  0  0  0  0  0  0
    6.3000   -8.6292    0.0000 N   0  0  0  0  0  0  0  0  0  0  0  0
   11.0125   -5.9042    0.0000 N   0  0  0  0  0  0  0  0  0  0  0  0
    9.1667  -10.4042    0.0000 C   0  0  0  0  0  0  0  0  0  0  0  0
   11.7292   -8.8167    0.0000 C   0  0  0  0  0  0  0  0  0  0  0  0
    6.6417   -9.9042    0.0000 C   0  0  0  0  0  0  0  0  0  0  0  0
   11.0292   -6.6500    0.0000 C   0  0  0  0  0  0  0  0  0  0  0  0
    5.7042   -7.7792    0.0000 C   0  0  0  0  0  0  0  0  0  0  0  0
    4.2500   -2.7667    0.0000 C   0  0  0  0  0  0  0  0  0  0  0  0
    8.7292   -5.3167    0.0000 C   0  0  0  0  0  0  0  0  0  0  0  0
    8.2000  -10.4125    0.0000 C   0  0  0  0  0  0  0  0  0  0  0  0
   10.8250   -9.4042    0.0000 C   0  0  0  0  0  0  0  0  0  0  0  0
    6.2375   -5.7792    0.0000 C   0  0  0  0  0  0  0  0  0  0  0  0
    5.4250   -4.5042    0.0000 N   0  0  0  0  0  0  0  0  0  0  0  0
    6.2375   -6.5667    0.0000 N   0  0  0  0  0  0  0  0  0  0  0  0
   11.5417   -5.2875    0.0000 C   0  0  0  0  0  0  0  0  0  0  0  0
   11.7625   -7.1917    0.0000 C   0  0  0  0  0  0  0  0  0  0  0  0
    5.9125   -9.3667    0.0000 C   0  0  0  0  0  0  0  0  0  0  0  0
    6.6417   -7.3792    0.0000 C   0  0  0  0  0  0  0  0  0  0  0  0
    3.5292   -4.0042    0.0000 N   0  0  0  0  0  0  0  0  0  0  0  0
    5.4250   -5.3792    0.0000 C   0  0  0  0  0  0  0  0  0  0  0  0
    8.7292   -6.0292    0.0000 N   0  0  0  0  0  0  0  0  0  0  0  0
    3.5292   -3.1792    0.0000 C   0  0  0  0  0  0  0  0  0  0  0  0
    2.9667   -4.8917    0.0000 C   0  0  0  0  0  0  0  0  0  0  0  0
    1.1042   -7.7417    0.0000 O   0  0  0  0  0  0  0  0  0  0  0  0
    1.7042   -7.1167    0.0000 O   0  0  0  0  0  0  0  0  0  0  0  0
    6.6125   -4.0667    0.0000 O   0  0  0  0  0  0  0  0  0  0  0  0
   11.7000   -4.0375    0.0000 O   0  0  0  0  0  0  0  0  0  0  0  0
    9.2667  -11.0000    0.0000 O   0  0  0  0  0  0  0  0  0  0  0  0
   12.4500   -9.1542    0.0000 O   0  0  0  0  0  0  0  0  0  0  0  0
    5.0167   -7.5667    0.0000 O   0  0  0  0  0  0  0  0  0  0  0  0
   10.4167   -7.1542    0.0000 O   0  0  0  0  0  0  0  0  0  0  0  0
    6.6417  -10.6917    0.0000 O   0  0  0  0  0  0  0  0  0  0  0  0
    7.6917  -10.9875    0.0000 C   0  0  0  0  0  0  0  0  0  0  0  0
    4.2500   -1.9542    0.0000 O   0  0  0  0  0  0  0  0  0  0  0  0
    6.8917   -5.4417    0.0000 O   0  0  0  0  0  0  0  0  0  0  0  0
    7.7375   -5.0375    0.0000 O   0  0  0  0  0  0  0  0  0  0  0  0
   11.6042   -9.8167    0.0000 C   0  0  0  0  0  0  0  0  0  0  0  0
    8.3542   -3.9750    0.0000 C   0  0  0  0  0  0  0  0  0  0  0  0
    6.7667   -2.7875    0.0000 C   0  0  0  0  0  0  0  0  0  0  0  0
    2.3125   -7.7417    0.0000 O   0  0  0  0  0  0  0  0  0  0  0  0
    1.7042   -8.3750    0.0000 O   0  0  0  0  0  0  0  0  0  0  0  0
    3.4917   -5.4750    0.0000 O   0  0  0  0  0  0  0  0  0  0  0  0
    7.2375   -6.7792    0.0000 C   0  0  0  0  0  0  0  0  0  0  0  0
    7.9875   -6.7792    0.0000 C   0  0  0  0  0  0  0  0  0  0  0  0
   12.6792   -6.7125    0.0000 C   0  0  0  0  0  0  0  0  0  0  0  0
   12.6667   -5.7167    0.0000 C   0  0  0  0  0  0  0  0  0  0  0  0
    4.9917   -9.8417    0.0000 C   0  0  0  0  0  0  0  0  0  0  0  0
    4.9292   -6.1292    0.0000 C   0  0  0  0  0  0  0  0  0  0  0  0
    2.8167   -2.7667    0.0000 C   0  0  0  0  0  0  0  0  0  0  0  0
    7.7250  -11.6667    0.0000 C   0  0  0  0  0  0  0  0  0  0  0  0
   14.1667   -5.1000    0.0000 N   0  0  0  0  0  0  0  0  0  0  0  0
    1.3625   -2.8417    0.0000 N   0  0  0  0  0  0  0  0  0  0  0  0
    3.2750   -6.7542    0.0000 N   0  0  0  0  0  0  0  0  0  0  0  0
    3.3667   -9.9417    0.0000 N   0  0  0  0  0  0  0  0  0  0  0  0
   14.3792   -7.2542    0.0000 N   0  0  0  0  0  0  0  0  0  0  0  0
    8.7292   -3.2542    0.0000 O   0  0  0  0  0  0  0  0  0  0  0  0
    7.5167   -2.7875    0.0000 O   0  0  0  0  0  0  0  0  0  0  0  0
   11.6042  -10.6542    0.0000 C   0  0  0  0  0  0  0  0  0  0  0  0
    2.2542   -5.3042    0.0000 C   0  0  0  0  0  0  0  0  0  0  0  0
   13.1667   -5.1000    0.0000 C   0  0  0  0  0  0  0  0  0  0  0  0
    4.1875   -9.3042    0.0000 C   0  0  0  0  0  0  0  0  0  0  0  0
   13.2917   -7.2542    0.0000 C   0  0  0  0  0  0  0  0  0  0  0  0
    2.1042   -3.1792    0.0000 C   0  0  0  0  0  0  0  0  0  0  0  0
    3.8042   -6.1292    0.0000 C   0  0  0  0  0  0  0  0  0  0  0  0
    7.5792   -3.9750    0.0000 C   0  0  0  0  0  0  0  0  0  0  0  0
    6.7667   -2.0042    0.0000 C   0  0  0  0  0  0  0  0  0  0  0  0
    7.0000  -12.0792    0.0000 C   0  0  0  0  0  0  0  0  0  0  0  0
    8.4417  -12.0792    0.0000 C   0  0  0  0  0  0  0  0  0  0  0  0
   -0.5875   -5.4417    0.0000 C   0  0  0  0  0  0  0  0  0  0  0  0
    1.5417   -4.8917    0.0000 C   0  0  0  0  0  0  0  0  0  0  0  0
   -1.3458   -5.1042    0.0000 C   0  0  0  0  0  0  0  0  0  0  0  0
    0.0792   -4.9667    0.0000 C   0  0  0  0  0  0  0  0  0  0  0  0
   12.2292  -11.0917    0.0000 C   0  0  0  0  0  0  0  0  0  0  0  0
   10.8875  -11.1250    0.0000 C   0  0  0  0  0  0  0  0  0  0  0  0
    0.8292   -5.3042    0.0000 C   0  0  0  0  0  0  0  0  0  0  0  0
   -0.5083   -6.2667    0.0000 C   0  0  0  0  0  0  0  0  0  0  0  0
   -2.0083   -5.5875    0.0000 C   0  0  0  0  0  0  0  0  0  0  0  0
    7.0000  -12.9125    0.0000 C   0  0  0  0  0  0  0  0  0  0  0  0
    8.4417  -12.9125    0.0000 C   0  0  0  0  0  0  0  0  0  0  0  0
    7.7250  -13.3292    0.0000 C   0  0  0  0  0  0  0  0  0  0  0  0
  3  1  1  0
  4  5  1  0
  5 23  1  0
  6 21  1  0
  7 15  1  0
  8  4  1  0
  9 26  1  0
 10  1  1  0
 11 17  1  0
 12 25  1  0
 13  6  1  0
 14  9  1  0
 15 27  1  0
 16 12  1  0
 17 28  1  0
 18  8  1  0
 19  3  1  0
 20 13  1  0
 21 14  1  0
 22 24  1  0
 23 30  1  0
 24 28  1  0
 25 10  1  0
 26 16  1  0
 27 11  1  0
 28 53  1  0
 29 32  1  0
 30 22  1  0
 31 19  1  0
 32 18  1  0
 33 29  1  0
 34  2  2  0
 35  2  2  0
 36  5  2  0
 37 10  2  0
 38 13  2  0
 39 14  2  0
 40 17  2  0
 41 16  2  0
 42 15  2  0
 43 20  1  0
 44 18  2  0
 45 22  2  0
 46 19  2  0
 47 21  1  0
 48  3  1  0
 49  4  1  0
 50  2  1  0
 51  2  1  0
 52 33  2  0
 53 54  1  0
 54 31  1  0
 55 26  1  0
 56 25  1  0
 57 27  1  0
 58 30  1  0
 59 32  1  0
 60 43  1  0
 61 70  1  0
 62 73  1  0
 63 74  1  0
 64 71  1  0
 65 72  1  0
 66 48  1  0
 67 49  1  0
 68 47  1  0
 69 33  1  0
 70 56  1  0
 71 57  1  0
 72 55  1  0
 73 59  1  0
 74 58  1  0
 75 48  1  0
 76 49  1  0
 77 60  2  0
 78 60  1  0
 79 82  1  0
 80 69  1  0
 81 79  1  0
 82 85  1  0
 83 68  1  0
 84 68  1  0
 85 80  1  0
 86 79  1  0
 87 81  1  0
 88 77  1  0
 89 78  2  0
 90 88  2  0
  7 20  1  0
 89 90  1  0
M  END
>  <ID>  (492) 


>  <MOLENAME>  (492) 
POLYMYXIN B SULFATE

>  <therap>  (492) 
antibacterial

>  <ref>  (492) 
N Engl J Med 271:633 (1964); J Bacteriol.93:1463 (1967); Biochem Biophys Res Commun 109:1129 (1982)

>  <cas#>  (492) 
1405-20-5, 1404-26-8 [polymyxin B]

>  <source>  (492) 
Bacillus polymyxa

>  <status>  (492) 
USP, INN, BAN, JAN

>  <tradename>  (492) 
AEROSPORIN

>  <SMILES>  (492) 
CCC(C)CCCCC(=O)NC(CCN)C(=O)NC(C(=O)NC(CCN)C(=O)NC1CCNC(=O)C(C(C)O)NC(=O)C(CCN)NC(=O)C(CCN)NC(=O)C(CC(C)C)NC(=O)C(Cc2ccccc2)NC(=O)C(CCN)NC1=O)C(C)O

>  <standardized_failed>  (492) 
False

$$$$

     RDKit          2D

 23 26  0  0  0  0  0  0  0  0999 V2000
    5.7167   -4.6375    0.0000 N   0  0  0  0  0  0  0  0  0  0  0  0
    5.7167   -6.1417    0.0000 N   0  0  0  0  0  0  0  0  0  0  0  0
    5.0667   -5.7667    0.0000 C   0  0  0  0  0  0  0  0  0  0  0  0
    6.3750   -5.7667    0.0000 C   0  0  0  0  0  0  0  0  0  0  0  0
    5.7167   -3.8875    0.0000 C   0  0  0  0  0  0  0  0  0  0  0  0
    5.0667   -5.0125    0.0000 C   0  0  0  0  0  0  0  0  0  0  0  0
    6.3750   -5.0125    0.0000 C   0  0  0  0  0  0  0  0  0  0  0  0
    4.4125   -6.1417    0.0000 C   0  0  0  0  0  0  0  0  0  0  0  0
    5.7167   -6.9000    0.0000 C   0  0  0  0  0  0  0  0  0  0  0  0
    7.0167   -6.1417    0.0000 O   0  0  0  0  0  0  0  0  0  0  0  0
    4.4125   -6.9000    0.0000 C   0  0  0  0  0  0  0  0  0  0  0  0
    6.3667   -3.5125    0.0000 O   0  0  0  0  0  0  0  0  0  0  0  0
    5.0667   -7.2750    0.0000 C   0  0  0  0  0  0  0  0  0  0  0  0
    5.0667   -3.5125    0.0000 C   0  0  0  0  0  0  0  0  0  0  0  0
    3.7542   -5.7667    0.0000 C   0  0  0  0  0  0  0  0  0  0  0  0
    3.7542   -7.2750    0.0000 C   0  0  0  0  0  0  0  0  0  0  0  0
    5.0667   -2.7625    0.0000 C   0  0  0  0  0  0  0  0  0  0  0  0
    4.4167   -3.8875    0.0000 C   0  0  0  0  0  0  0  0  0  0  0  0
    3.1125   -6.1417    0.0000 C   0  0  0  0  0  0  0  0  0  0  0  0
    3.1125   -6.9000    0.0000 C   0  0  0  0  0  0  0  0  0  0  0  0
    3.7667   -3.5125    0.0000 C   0  0  0  0  0  0  0  0  0  0  0  0
    4.4167   -2.3875    0.0000 C   0  0  0  0  0  0  0  0  0  0  0  0
    3.7667   -2.7625    0.0000 C   0  0  0  0  0  0  0  0  0  0  0  0
  2  4  1  0
  3  6  1  0
  4  7  1  0
  5  1  1  0
  6  1  1  0
  7  1  1  0
  8  3  1  0
  9  2  1  0
 10  4  2  0
 11  8  2  0
 12  5  2  0
 13  9  1  0
 14  5  1  0
 15  8  1  0
 16 11  1  0
 17 14  1  0
 18 14  1  0
 19 15  2  0
 20 19  1  0
 21 18  1  0
 22 17  1  0
 23 21  1  0
  2  3  1  0
 13 11  1  0
 23 22  1  0
 20 16  2  0
M  END
>  <ID>  (493) 


>  <MOLENAME>  (493) 
PRAZIQUANTEL

>  <therap>  (493) 
anthelmintic; EMBAY-8440

>  <ref>  (493) 
Eur J Clin Pharmacol 14:281 (1978); N Engl J Med 310:101 (1984)

>  <cas#>  (493) 
55268-74-1

>  <source>  (493) 
synthetic

>  <status>  (493) 
USP, INN, BAN, JAN

>  <tradename>  (493) 
BILTRICIDE

>  <SMILES>  (493) 
O=C(C1CCCCC1)N1CC(=O)N2CCc3c(cccc3)C2C1

>  <standardized_failed>  (493) 
False

$$$$

     RDKit          2D

 29 31  0  0  0  0  0  0  0  0999 V2000
    6.5042   -5.6625    0.0000 C   0  0  0  0  0  0  0  0  0  0  0  0
    6.5042   -6.4875    0.0000 N   0  0  0  0  0  0  0  0  0  0  0  0
    5.0792   -6.4875    0.0000 C   0  0  0  0  0  0  0  0  0  0  0  0
    5.7917   -6.9000    0.0000 C   0  0  0  0  0  0  0  0  0  0  0  0
    5.7917   -5.2500    0.0000 N   0  0  0  0  0  0  0  0  0  0  0  0
    5.0792   -5.6625    0.0000 C   0  0  0  0  0  0  0  0  0  0  0  0
    9.3667   -4.0167    0.0000 C   0  0  0  0  0  0  0  0  0  0  0  0
    7.2167   -5.2500    0.0000 N   0  0  0  0  0  0  0  0  0  0  0  0
    8.6542   -4.4292    0.0000 N   0  0  0  0  0  0  0  0  0  0  0  0
    4.3667   -6.9000    0.0000 C   0  0  0  0  0  0  0  0  0  0  0  0
    9.3792   -3.1917    0.0000 C   0  0  0  0  0  0  0  0  0  0  0  0
    4.3667   -5.2500    0.0000 C   0  0  0  0  0  0  0  0  0  0  0  0
    3.6542   -6.4875    0.0000 C   0  0  0  0  0  0  0  0  0  0  0  0
    3.6542   -5.6625    0.0000 C   0  0  0  0  0  0  0  0  0  0  0  0
   10.0417   -2.7125    0.0000 O   0  0  0  0  0  0  0  0  0  0  0  0
    7.2167   -4.4250    0.0000 C   0  0  0  0  0  0  0  0  0  0  0  0
    7.9417   -5.6625    0.0000 C   0  0  0  0  0  0  0  0  0  0  0  0
    8.6542   -5.2542    0.0000 C   0  0  0  0  0  0  0  0  0  0  0  0
    7.9417   -4.0042    0.0000 C   0  0  0  0  0  0  0  0  0  0  0  0
   10.0792   -4.4375    0.0000 O   0  0  0  0  0  0  0  0  0  0  0  0
    8.7042   -2.7125    0.0000 C   0  0  0  0  0  0  0  0  0  0  0  0
    9.7917   -1.9250    0.0000 C   0  0  0  0  0  0  0  0  0  0  0  0
    8.9667   -1.9250    0.0000 C   0  0  0  0  0  0  0  0  0  0  0  0
    5.7917   -7.7250    0.0000 N   0  0  0  0  0  0  0  0  0  0  0  0
    2.9417   -6.9000    0.0000 O   0  0  0  0  0  0  0  0  0  0  0  0
    2.9417   -5.2500    0.0000 O   0  0  0  0  0  0  0  0  0  0  0  0
    8.4167   -6.2792    0.0000 Cl  0  0  0  0  0  0  0  0  0  0  0  0
    2.9417   -4.4250    0.0000 C   0  0  0  0  0  0  0  0  0  0  0  0
    2.2292   -6.4875    0.0000 C   0  0  0  0  0  0  0  0  0  0  0  0
  2  1  2  0
  3  6  1  0
  4  2  1  0
  5  1  1  0
  6  5  2  0
  7  9  1  0
  8  1  1  0
  9 18  1  0
 10  3  1  0
 11  7  1  0
 12  6  1  0
 13 14  1  0
 14 12  2  0
 15 11  1  0
 16  8  1  0
 17  8  1  0
 18 17  1  0
 19 16  1  0
 20  7  2  0
 21 11  2  0
 22 15  1  0
 23 21  1  0
 24  4  1  0
 25 13  1  0
 26 14  1  0
 28 26  1  0
 29 25  1  0
  3  4  2  0
 19  9  1  0
 10 13  2  0
 22 23  2  0
M  END
>  <ID>  (494) 


>  <MOLENAME>  (494) 
PRAZOSIN HYDROCHLORIDE

>  <therap>  (494) 
antihypertensive

>  <ref>  (494) 
Drugs 25:339 (1983); Cardiology 73:164 (1986); Anal Profiles Drug Subs 18:351 (1989)

>  <cas#>  (494) 
19237-84-4, 19216-56-9 [prazosin]

>  <source>  (494) 
synthetic; CP-12299-1

>  <status>  (494) 
USP, INN, BAN, JAN

>  <tradename>  (494) 
MINIPRESS

>  <SMILES>  (494) 
COc1cc2nc(N3CCN(C(=O)c4ccco4)CC3)nc(N)c2cc1OC

>  <standardized_failed>  (494) 
False

$$$$

     RDKit          2D

 26 29  0  0  0  0  0  0  0  0999 V2000
    7.4292   -7.4167    0.0000 C   0  0  0  0  0  0  0  0  0  0  0  0
    5.2875   -8.6625    0.0000 C   0  0  0  0  0  0  0  0  0  0  0  0
    8.2167   -7.1667    0.0000 C   0  0  0  0  0  0  0  0  0  0  0  0
    6.7167   -8.6625    0.0000 C   0  0  0  0  0  0  0  0  0  0  0  0
    7.4292   -8.2500    0.0000 C   0  0  0  0  0  0  0  0  0  0  0  0
    6.0000   -8.2500    0.0000 C   0  0  0  0  0  0  0  0  0  0  0  0
    5.2875   -9.4875    0.0000 C   0  0  0  0  0  0  0  0  0  0  0  0
    6.7125   -7.0042    0.0000 C   0  0  0  0  0  0  0  0  0  0  0  0
    6.0000   -7.4167    0.0000 C   0  0  0  0  0  0  0  0  0  0  0  0
    4.5750   -8.2500    0.0000 C   0  0  0  0  0  0  0  0  0  0  0  0
    4.5750   -9.9000    0.0000 C   0  0  0  0  0  0  0  0  0  0  0  0
    8.5542   -6.4125    0.0000 C   0  0  0  0  0  0  0  0  0  0  0  0
    8.7000   -7.8292    0.0000 C   0  0  0  0  0  0  0  0  0  0  0  0
    8.2167   -8.5042    0.0000 C   0  0  0  0  0  0  0  0  0  0  0  0
    6.7167   -9.4875    0.0000 C   0  0  0  0  0  0  0  0  0  0  0  0
    3.8542   -8.6625    0.0000 C   0  0  0  0  0  0  0  0  0  0  0  0
    3.8542   -9.4875    0.0000 C   0  0  0  0  0  0  0  0  0  0  0  0
    6.0000   -9.9000    0.0000 C   0  0  0  0  0  0  0  0  0  0  0  0
    9.3750   -6.3250    0.0000 O   0  0  0  0  0  0  0  0  0  0  0  0
    3.1375   -9.9042    0.0000 O   0  0  0  0  0  0  0  0  0  0  0  0
    9.0417   -7.2042    0.0000 O   0  0  0  0  0  0  0  0  0  0  0  0
    7.4292   -6.5917    0.0000 C   0  0  0  0  0  0  0  0  0  0  0  0
    5.2792   -6.9917    0.0000 O   0  0  0  0  0  0  0  0  0  0  0  0
    5.2875   -7.8292    0.0000 C   0  0  0  0  0  0  0  0  0  0  0  0
    8.0667   -5.7417    0.0000 C   0  0  0  0  0  0  0  0  0  0  0  0
    7.2417   -5.8292    0.0000 O   0  0  0  0  0  0  0  0  0  0  0  0
  2  6  1  0
  3  1  1  0
  4  5  1  0
  5  1  1  0
  6  9  1  0
  7  2  1  0
  8  1  1  0
  9  8  1  0
 10  2  1  0
 11  7  2  0
  3 12  1  0
 13  3  1  0
 14  5  1  0
 15  4  1  0
 16 10  2  0
 17 16  1  0
 18 15  1  0
 19 12  2  0
 20 17  2  0
  3 21  1  6
  1 22  1  1
  9 23  1  1
  2 24  1  1
 25 12  1  0
 26 25  1  0
 13 14  1  0
  6  4  1  0
 18  7  1  0
 17 11  1  0
M  END
>  <ID>  (495) 


>  <MOLENAME>  (495) 
PREDNISOLONE

>  <therap>  (495) 
glucocorticoid

>  <ref>  (495) 
Ther Drug Monit 2:169 (1980); Anal Profiles Drug Subs Excip 21:415 (1992)

>  <cas#>  (495) 
50-24-8 [anhydrous], 52438-85-4 [sesquihydrate]

>  <source>  (495) 
semisynthetic; NSC-9120

>  <status>  (495) 
USP, INN, BAN, JAN

>  <tradename>  (495) 
DELTA-CORTEF

>  <SMILES>  (495) 
C[C@]12C[C@H](O)C3C(CCC4=CC(=O)C=C[C@@]43C)C1CC[C@]2(O)C(=O)CO

>  <standardized_failed>  (495) 
False

$$$$

     RDKit          2D

 29 32  0  0  0  0  0  0  0  0999 V2000
    7.2750   -7.7667    0.0000 C   0  0  0  0  0  0  0  0  0  0  0  0
    5.1292   -9.0042    0.0000 C   0  0  0  0  0  0  0  0  0  0  0  0
    8.0542   -7.5125    0.0000 C   0  0  0  0  0  0  0  0  0  0  0  0
    6.5542   -9.0042    0.0000 C   0  0  0  0  0  0  0  0  0  0  0  0
    7.2750   -8.5917    0.0000 C   0  0  0  0  0  0  0  0  0  0  0  0
    5.8417   -8.5917    0.0000 C   0  0  0  0  0  0  0  0  0  0  0  0
    5.1292   -9.8292    0.0000 C   0  0  0  0  0  0  0  0  0  0  0  0
    6.5542   -7.3542    0.0000 C   0  0  0  0  0  0  0  0  0  0  0  0
    5.8417   -7.7667    0.0000 C   0  0  0  0  0  0  0  0  0  0  0  0
    4.4167   -8.5917    0.0000 C   0  0  0  0  0  0  0  0  0  0  0  0
    8.3917   -6.7542    0.0000 C   0  0  0  0  0  0  0  0  0  0  0  0
    4.4167  -10.2417    0.0000 C   0  0  0  0  0  0  0  0  0  0  0  0
    8.5417   -8.1792    0.0000 C   0  0  0  0  0  0  0  0  0  0  0  0
    8.0542   -8.8500    0.0000 C   0  0  0  0  0  0  0  0  0  0  0  0
    6.5542   -9.8292    0.0000 C   0  0  0  0  0  0  0  0  0  0  0  0
    3.7000   -9.0042    0.0000 C   0  0  0  0  0  0  0  0  0  0  0  0
    3.7000   -9.8292    0.0000 C   0  0  0  0  0  0  0  0  0  0  0  0
    5.8417  -10.2417    0.0000 C   0  0  0  0  0  0  0  0  0  0  0  0
    6.6000   -5.5042    0.0000 C   0  0  0  0  0  0  0  0  0  0  0  0
    7.9042   -6.0875    0.0000 C   0  0  0  0  0  0  0  0  0  0  0  0
    9.2167   -6.6667    0.0000 O   0  0  0  0  0  0  0  0  0  0  0  0
    7.0875   -6.1750    0.0000 O   0  0  0  0  0  0  0  0  0  0  0  0
    5.7792   -5.5917    0.0000 O   0  0  0  0  0  0  0  0  0  0  0  0
    2.9792  -10.2542    0.0000 O   0  0  0  0  0  0  0  0  0  0  0  0
    8.8792   -7.5500    0.0000 O   0  0  0  0  0  0  0  0  0  0  0  0
    7.2667   -6.9417    0.0000 C   0  0  0  0  0  0  0  0  0  0  0  0
    5.1167   -7.3417    0.0000 O   0  0  0  0  0  0  0  0  0  0  0  0
    5.1292   -8.1792    0.0000 C   0  0  0  0  0  0  0  0  0  0  0  0
    6.9375   -4.7500    0.0000 C   0  0  0  0  0  0  0  0  0  0  0  0
  2  6  1  0
  3  1  1  0
  4  5  1  0
  5  1  1  0
  6  9  1  0
  7  2  1  0
  8  1  1  0
  9  8  1  0
 10  2  1  0
  3 11  1  0
 12  7  2  0
 13  3  1  0
 14  5  1  0
 15  4  1  0
 16 10  2  0
 17 16  1  0
 18 15  1  0
 19 22  1  0
 20 11  1  0
 21 11  2  0
 22 20  1  0
 23 19  2  0
 24 17  2  0
  3 25  1  6
  1 26  1  1
  9 27  1  1
 28  2  1  0
 29 19  1  0
 13 14  1  0
  6  4  1  0
 18  7  1  0
 17 12  1  0
M  END
>  <ID>  (496) 


>  <MOLENAME>  (496) 
PREDNISOLONE ACETATE

>  <therap>  (496) 
glucocorticoid

>  <ref>  (496) 
Ther Drug Monit 2:169 (1980); Anal Profiles Drug Subs Excip 21:415 (1992)

>  <cas#>  (496) 
52-21-1

>  <source>  (496) 
semisynthetic

>  <status>  (496) 
USP, JAN

>  <tradename>  (496) 
METICOTOLONE

>  <SMILES>  (496) 
CC(=O)OCC(=O)[C@@]1(O)CCC2C3CCC4=CC(=O)C=CC4(C)C3[C@@H](O)C[C@@]21C

>  <standardized_failed>  (496) 
False

$$$$

     RDKit          2D

 26 29  0  0  0  0  0  0  0  0999 V2000
    4.0917    0.0750    0.0000 C   0  0  0  0  0  0  0  0  0  0  0  0
    1.9417   -1.1667    0.0000 C   0  0  0  0  0  0  0  0  0  0  0  0
    4.8750    0.3333    0.0000 C   0  0  0  0  0  0  0  0  0  0  0  0
    2.6542   -0.7542    0.0000 C   0  0  0  0  0  0  0  0  0  0  0  0
    3.3750   -1.1667    0.0000 C   0  0  0  0  0  0  0  0  0  0  0  0
    4.0917   -0.7542    0.0000 C   0  0  0  0  0  0  0  0  0  0  0  0
    2.6542    0.0750    0.0000 C   0  0  0  0  0  0  0  0  0  0  0  0
    1.9417   -1.9917    0.0000 C   0  0  0  0  0  0  0  0  0  0  0  0
    3.3667    0.4875    0.0000 C   0  0  0  0  0  0  0  0  0  0  0  0
    1.2292   -0.7542    0.0000 C   0  0  0  0  0  0  0  0  0  0  0  0
    1.2292   -2.4042    0.0000 C   0  0  0  0  0  0  0  0  0  0  0  0
    5.1292    1.1208    0.0000 C   0  0  0  0  0  0  0  0  0  0  0  0
    5.3542   -0.3375    0.0000 C   0  0  0  0  0  0  0  0  0  0  0  0
    4.8750   -1.0042    0.0000 C   0  0  0  0  0  0  0  0  0  0  0  0
    3.3750   -1.9917    0.0000 C   0  0  0  0  0  0  0  0  0  0  0  0
    0.5167   -1.1667    0.0000 C   0  0  0  0  0  0  0  0  0  0  0  0
    0.5167   -1.9917    0.0000 C   0  0  0  0  0  0  0  0  0  0  0  0
    2.6542   -2.4042    0.0000 C   0  0  0  0  0  0  0  0  0  0  0  0
    1.9375    0.5000    0.0000 O   0  0  0  0  0  0  0  0  0  0  0  0
    5.9292    1.2958    0.0000 O   0  0  0  0  0  0  0  0  0  0  0  0
   -0.2083   -2.4125    0.0000 O   0  0  0  0  0  0  0  0  0  0  0  0
    5.7000    0.3333    0.0000 O   0  0  0  0  0  0  0  0  0  0  0  0
    4.0875    0.9000    0.0000 C   0  0  0  0  0  0  0  0  0  0  0  0
    1.9417   -0.3375    0.0000 C   0  0  0  0  0  0  0  0  0  0  0  0
    4.5750    1.7333    0.0000 C   0  0  0  0  0  0  0  0  0  0  0  0
    3.7667    1.5583    0.0000 O   0  0  0  0  0  0  0  0  0  0  0  0
  2  4  1  0
  3  1  1  0
  4  7  1  0
  5  6  1  0
  6  1  1  0
  7  9  1  0
  8  2  1  0
  9  1  1  0
 10  2  1  0
 11  8  2  0
  3 12  1  0
 13  3  1  0
 14  6  1  0
 15  5  1  0
 16 10  2  0
 17 16  1  0
 18 15  1  0
 19  7  2  0
 20 12  2  0
 21 17  2  0
  3 22  1  6
  1 23  1  1
  2 24  1  1
 25 12  1  0
 26 25  1  0
 13 14  1  0
  4  5  1  0
 18  8  1  0
 17 11  1  0
M  END
>  <ID>  (497) 


>  <MOLENAME>  (497) 
PREDNISONE

>  <therap>  (497) 
glucocorticoid

>  <ref>  (497) 
J Pediatric Surg 7:223 (1972); Environ Toxicol Chem 22:534 (2003)

>  <cas#>  (497) 
53-03-2

>  <source>  (497) 
semisynthetic; NSC-10023

>  <status>  (497) 
USP, INN, BAN

>  <tradename>  (497) 
DECORTIN

>  <SMILES>  (497) 
C[C@]12CC(=O)C3C(CCC4=CC(=O)C=C[C@@]43C)C1CC[C@]2(O)C(=O)CO

>  <standardized_failed>  (497) 
False

$$$$

     RDKit          2D

 29 28  0  0  0  0  0  0  0  0999 V2000
    7.5042   -4.0917    0.0000 P   0  0  0  0  0  0  0  0  0  0  0  0
    5.5792   -2.0000    0.0000 P   0  0  0  0  0  0  0  0  0  0  0  0
    4.8167   -5.4667    0.0000 C   0  0  0  0  0  0  0  0  0  0  0  0
    5.4625   -5.8417    0.0000 C   0  0  0  0  0  0  0  0  0  0  0  0
    4.8167   -4.7167    0.0000 N   0  0  0  0  0  0  0  0  0  0  0  0
    4.1667   -5.8417    0.0000 C   0  0  0  0  0  0  0  0  0  0  0  0
    5.4625   -6.5917    0.0000 C   0  0  0  0  0  0  0  0  0  0  0  0
    6.1125   -5.4667    0.0000 N   0  0  0  0  0  0  0  0  0  0  0  0
    6.8042   -4.0917    0.0000 O   0  0  0  0  0  0  0  0  0  0  0  0
    4.8792   -2.0000    0.0000 O   0  0  0  0  0  0  0  0  0  0  0  0
    4.1667   -6.5917    0.0000 C   0  0  0  0  0  0  0  0  0  0  0  0
    4.8167   -6.9667    0.0000 C   0  0  0  0  0  0  0  0  0  0  0  0
    7.5000   -3.3917    0.0000 O   0  0  0  0  0  0  0  0  0  0  0  0
    5.5750   -1.3000    0.0000 O   0  0  0  0  0  0  0  0  0  0  0  0
    6.2750   -2.0000    0.0000 O   0  0  0  0  0  0  0  0  0  0  0  0
    5.5750   -2.6917    0.0000 O   0  0  0  0  0  0  0  0  0  0  0  0
    7.5000   -4.7875    0.0000 O   0  0  0  0  0  0  0  0  0  0  0  0
    8.2000   -4.0917    0.0000 O   0  0  0  0  0  0  0  0  0  0  0  0
    2.8792   -2.0917    0.0000 N   0  0  0  0  0  0  0  0  0  0  0  0
    3.5125   -6.9792    0.0000 O   0  0  0  0  0  0  0  0  0  0  0  0
    4.1750   -4.3417    0.0000 C   0  0  0  0  0  0  0  0  0  0  0  0
    6.1125   -6.9667    0.0000 C   0  0  0  0  0  0  0  0  0  0  0  0
    6.7625   -5.8417    0.0000 C   0  0  0  0  0  0  0  0  0  0  0  0
    3.5250   -2.4667    0.0000 C   0  0  0  0  0  0  0  0  0  0  0  0
    3.5125   -7.7250    0.0000 C   0  0  0  0  0  0  0  0  0  0  0  0
    4.1750   -3.5917    0.0000 C   0  0  0  0  0  0  0  0  0  0  0  0
    3.5250   -4.7167    0.0000 C   0  0  0  0  0  0  0  0  0  0  0  0
    3.5250   -3.2167    0.0000 C   0  0  0  0  0  0  0  0  0  0  0  0
    6.7625   -6.5917    0.0000 C   0  0  0  0  0  0  0  0  0  0  0  0
  4  3  2  0
  5  3  1  0
  6  3  1  0
  7  4  1  0
  8  4  1  0
  9  1  2  0
 10  2  2  0
 11  6  2  0
 12 11  1  0
 13  1  1  0
 14  2  1  0
 15  2  1  0
 16  2  1  0
 17  1  1  0
 18  1  1  0
 19 24  1  0
 20 11  1  0
 21  5  1  0
 22  7  1  0
 23  8  2  0
 24 28  1  0
 25 20  1  0
 26 21  1  0
 27 21  1  0
 28 26  1  0
 29 23  1  0
 12  7  2  0
 29 22  2  0
M  END
>  <ID>  (498) 


>  <MOLENAME>  (498) 
PRIMAQUINE PHOSPHATE

>  <therap>  (498) 
antimalarial

>  <ref>  (498) 
J Infect Dis 169:932 (1994); Am J Trop Med Hyg 61:973 (1999)

>  <cas#>  (498) 
63-45-6, 90-34-6 [primaquine]

>  <source>  (498) 
synthetic; SN-13272

>  <status>  (498) 
USP, INN, BAN

>  <tradename>  (498) 
nan

>  <SMILES>  (498) 
COc1cc(NC(C)CCCN)c2ncccc2c1

>  <standardized_failed>  (498) 
False

$$$$

     RDKit          2D

 16 17  0  0  0  0  0  0  0  0999 V2000
    3.4542   -2.1375    0.0000 C   0  0  0  0  0  0  0  0  0  0  0  0
    3.0792   -1.4917    0.0000 C   0  0  0  0  0  0  0  0  0  0  0  0
    4.2042   -2.1375    0.0000 C   0  0  0  0  0  0  0  0  0  0  0  0
    4.5792   -1.4917    0.0000 N   0  0  0  0  0  0  0  0  0  0  0  0
    3.4542   -0.8417    0.0000 N   0  0  0  0  0  0  0  0  0  0  0  0
    4.2042   -0.8417    0.0000 C   0  0  0  0  0  0  0  0  0  0  0  0
    3.4375   -2.7792    0.0000 C   0  0  0  0  0  0  0  0  0  0  0  0
    2.3292   -1.4917    0.0000 O   0  0  0  0  0  0  0  0  0  0  0  0
    4.5792   -2.7792    0.0000 O   0  0  0  0  0  0  0  0  0  0  0  0
    2.8542   -2.5667    0.0000 C   0  0  0  0  0  0  0  0  0  0  0  0
    2.8042   -3.1917    0.0000 C   0  0  0  0  0  0  0  0  0  0  0  0
    4.1000   -3.1292    0.0000 C   0  0  0  0  0  0  0  0  0  0  0  0
    2.1667   -2.2500    0.0000 C   0  0  0  0  0  0  0  0  0  0  0  0
    4.1250   -3.8792    0.0000 C   0  0  0  0  0  0  0  0  0  0  0  0
    2.8292   -3.9292    0.0000 C   0  0  0  0  0  0  0  0  0  0  0  0
    3.5000   -4.2750    0.0000 C   0  0  0  0  0  0  0  0  0  0  0  0
  2  1  1  0
  3  1  1  0
  4  3  1  0
  5  2  1  0
  6  4  1  0
  7  1  1  0
  8  2  2  0
  9  3  2  0
 10  1  1  0
 11  7  2  0
 12  7  1  0
 13 10  1  0
 14 12  2  0
 15 11  1  0
 16 14  1  0
  5  6  1  0
 16 15  2  0
M  END
>  <ID>  (499) 


>  <MOLENAME>  (499) 
PRIMIDONE

>  <therap>  (499) 
anticonvulsant

>  <ref>  (499) 
anal Profiles Drug Subs 2:409 (1973); 17:749 (1988)

>  <cas#>  (499) 
125-33-7

>  <source>  (499) 
synthetic

>  <status>  (499) 
USP, INN, BAN, JAN

>  <tradename>  (499) 
MYSOLINE

>  <SMILES>  (499) 
CCC1(c2ccccc2)C(=O)NCNC1=O

>  <standardized_failed>  (499) 
False

$$$$

     RDKit          2D

 19 19  0  0  0  0  0  0  0  0999 V2000
    2.8167   -2.0792    0.0000 S   0  0  0  0  0  0  0  0  0  0  0  0
    3.5667   -2.0792    0.0000 C   0  0  0  0  0  0  0  0  0  0  0  0
    2.0667   -2.0792    0.0000 N   0  0  0  0  0  0  0  0  0  0  0  0
    5.8167   -2.0792    0.0000 C   0  0  0  0  0  0  0  0  0  0  0  0
    2.8167   -2.8292    0.0000 O   0  0  0  0  0  0  0  0  0  0  0  0
    2.8167   -1.3292    0.0000 O   0  0  0  0  0  0  0  0  0  0  0  0
    5.0667   -2.0792    0.0000 C   0  0  0  0  0  0  0  0  0  0  0  0
    6.1917   -1.4292    0.0000 O   0  0  0  0  0  0  0  0  0  0  0  0
    3.9417   -2.7250    0.0000 C   0  0  0  0  0  0  0  0  0  0  0  0
    3.9417   -1.4292    0.0000 C   0  0  0  0  0  0  0  0  0  0  0  0
    4.6917   -1.4292    0.0000 C   0  0  0  0  0  0  0  0  0  0  0  0
    4.6917   -2.7250    0.0000 C   0  0  0  0  0  0  0  0  0  0  0  0
    6.1917   -2.7250    0.0000 O   0  0  0  0  0  0  0  0  0  0  0  0
    1.6917   -1.4292    0.0000 C   0  0  0  0  0  0  0  0  0  0  0  0
    1.6917   -2.7292    0.0000 C   0  0  0  0  0  0  0  0  0  0  0  0
    0.9417   -1.4292    0.0000 C   0  0  0  0  0  0  0  0  0  0  0  0
    2.0667   -3.3792    0.0000 C   0  0  0  0  0  0  0  0  0  0  0  0
    0.5667   -0.7875    0.0000 C   0  0  0  0  0  0  0  0  0  0  0  0
    1.6917   -4.0292    0.0000 C   0  0  0  0  0  0  0  0  0  0  0  0
  2  1  1  0
  3  1  1  0
  4  7  1  0
  5  1  2  0
  6  1  2  0
  7 11  1  0
  8  4  2  0
  9  2  2  0
 10  2  1  0
 11 10  2  0
 12  9  1  0
 13  4  1  0
 14  3  1  0
 15  3  1  0
 16 14  1  0
 17 15  1  0
 18 16  1  0
 19 17  1  0
  7 12  2  0
M  END
>  <ID>  (500) 


>  <MOLENAME>  (500) 
PROBENECID

>  <therap>  (500) 
uricosuric

>  <ref>  (500) 
J Pharmacol Exp Ther 102:208 (1951); Anal Profiles Drug Subs 10:639 (1981)

>  <cas#>  (500) 
57-66-9

>  <source>  (500) 
synthetic

>  <status>  (500) 
USP, INN, BAN, JAN

>  <tradename>  (500) 
PROBENEMID

>  <SMILES>  (500) 
CCCN(CCC)S(=O)(=O)c1ccc(C(=O)O)cc1

>  <standardized_failed>  (500) 
False

$$$$

     RDKit          2D

 18 17  0  0  0  0  0  0  0  0999 V2000
    6.3542   -4.2542    0.0000 C   0  0  0  0  0  0  0  0  0  0  0  0
    7.1042   -4.2542    0.0000 C   0  0  0  0  0  0  0  0  0  0  0  0
    5.9792   -3.6125    0.0000 O   0  0  0  0  0  0  0  0  0  0  0  0
    5.9792   -4.9125    0.0000 N   0  0  0  0  0  0  0  0  0  0  0  0
    7.4792   -3.6125    0.0000 C   0  0  0  0  0  0  0  0  0  0  0  0
    7.4792   -4.9042    0.0000 C   0  0  0  0  0  0  0  0  0  0  0  0
    8.6042   -4.2542    0.0000 C   0  0  0  0  0  0  0  0  0  0  0  0
    4.1042   -5.5542    0.0000 N   0  0  0  0  0  0  0  0  0  0  0  0
    9.3542   -4.2542    0.0000 N   0  0  0  0  0  0  0  0  0  0  0  0
    8.2292   -4.9042    0.0000 C   0  0  0  0  0  0  0  0  0  0  0  0
    8.2292   -3.6125    0.0000 C   0  0  0  0  0  0  0  0  0  0  0  0
    6.0417   -6.0917    0.0000 Cl  0  0  0  0  0  0  0  0  0  0  0  0
    5.2292   -4.9125    0.0000 C   0  0  0  0  0  0  0  0  0  0  0  0
    4.8542   -5.5542    0.0000 C   0  0  0  0  0  0  0  0  0  0  0  0
    3.7292   -6.2042    0.0000 C   0  0  0  0  0  0  0  0  0  0  0  0
    3.7292   -4.9125    0.0000 C   0  0  0  0  0  0  0  0  0  0  0  0
    2.9792   -6.2042    0.0000 C   0  0  0  0  0  0  0  0  0  0  0  0
    4.1042   -4.2542    0.0000 C   0  0  0  0  0  0  0  0  0  0  0  0
  2  1  1  0
  3  1  2  0
  4  1  1  0
  5  2  2  0
  6  2  1  0
  7 10  1  0
  8 14  1  0
  9  7  1  0
 10  6  2  0
 11  5  1  0
 13  4  1  0
 14 13  1  0
 15  8  1  0
 16  8  1  0
 17 15  1  0
 18 16  1  0
 11  7  2  0
M  END
>  <ID>  (501) 


>  <MOLENAME>  (501) 
PROCAINAMIDE HYDROCHLORIDE

>  <therap>  (501) 
antiarrhythmic

>  <ref>  (501) 
Anal Profiles Drug Subs 4:333 (1975); Br Heart J 44:589 (1980)

>  <cas#>  (501) 
614-39-1, 51-06-9 [procainamide]

>  <source>  (501) 
synthetic

>  <status>  (501) 
USP, INN, BAN, JAN

>  <tradename>  (501) 
PROCAN

>  <SMILES>  (501) 
CCN(CC)CCNC(=O)c1ccc(N)cc1

>  <standardized_failed>  (501) 
False

$$$$

     RDKit          2D

 18 17  0  0  0  0  0  0  0  0999 V2000
    6.3542   -4.2542    0.0000 C   0  0  0  0  0  0  0  0  0  0  0  0
    7.1042   -4.2542    0.0000 C   0  0  0  0  0  0  0  0  0  0  0  0
    5.9792   -3.6125    0.0000 O   0  0  0  0  0  0  0  0  0  0  0  0
    7.4792   -4.9042    0.0000 C   0  0  0  0  0  0  0  0  0  0  0  0
    7.4792   -3.6042    0.0000 C   0  0  0  0  0  0  0  0  0  0  0  0
    5.9792   -4.9042    0.0000 O   0  0  0  0  0  0  0  0  0  0  0  0
    8.6042   -4.2542    0.0000 C   0  0  0  0  0  0  0  0  0  0  0  0
    4.1042   -5.5542    0.0000 N   0  0  0  0  0  0  0  0  0  0  0  0
    9.3542   -4.2542    0.0000 N   0  0  0  0  0  0  0  0  0  0  0  0
    8.2292   -4.9042    0.0000 C   0  0  0  0  0  0  0  0  0  0  0  0
    8.2292   -3.6042    0.0000 C   0  0  0  0  0  0  0  0  0  0  0  0
    5.3917   -6.4667    0.0000 Cl  0  0  0  0  0  0  0  0  0  0  0  0
    5.2292   -4.9042    0.0000 C   0  0  0  0  0  0  0  0  0  0  0  0
    4.8542   -5.5542    0.0000 C   0  0  0  0  0  0  0  0  0  0  0  0
    3.7292   -6.2042    0.0000 C   0  0  0  0  0  0  0  0  0  0  0  0
    3.7292   -4.9042    0.0000 C   0  0  0  0  0  0  0  0  0  0  0  0
    2.9792   -6.2042    0.0000 C   0  0  0  0  0  0  0  0  0  0  0  0
    4.1042   -4.2542    0.0000 C   0  0  0  0  0  0  0  0  0  0  0  0
  2  1  1  0
  3  1  2  0
  4  2  2  0
  5  2  1  0
  6  1  1  0
  7 11  1  0
  8 14  1  0
  9  7  1  0
 10  4  1  0
 11  5  2  0
 13  6  1  0
 14 13  1  0
 15  8  1  0
 16  8  1  0
 17 15  1  0
 18 16  1  0
  7 10  2  0
M  END
>  <ID>  (502) 


>  <MOLENAME>  (502) 
PROCAINE HYDROCHLORIDE

>  <therap>  (502) 
anesthetic (local)

>  <ref>  (502) 
J Am Pharm Assoc Sci Ed 45:382 (1956); Toxicol Appl Pharmacol 18:185 (1971)

>  <cas#>  (502) 
51-05-8, 59-46-1 [procaine]

>  <source>  (502) 
synthetic

>  <status>  (502) 
USP, JAN

>  <tradename>  (502) 
NOVOCAIN

>  <SMILES>  (502) 
CCN(CC)CCOC(=O)c1ccc(N)cc1

>  <standardized_failed>  (502) 
False

$$$$

     RDKit          2D

 35 37  0  0  0  0  0  0  0  0999 V2000
    4.3167   -8.4917    0.0000 N   0  0  0  0  0  0  0  0  0  0  0  0
    9.0167   -6.7417    0.0000 S   0  0  0  0  0  0  0  0  0  0  0  0
    9.1542   -8.5417    0.0000 S   0  0  0  0  0  0  0  0  0  0  0  0
    4.9792   -8.8750    0.0000 C   0  0  0  0  0  0  0  0  0  0  0  0
    4.3167  -10.0042    0.0000 S   0  0  0  0  0  0  0  0  0  0  0  0
    3.6667   -8.8750    0.0000 C   0  0  0  0  0  0  0  0  0  0  0  0
    4.9792   -9.6292    0.0000 C   0  0  0  0  0  0  0  0  0  0  0  0
    3.6667   -9.6292    0.0000 C   0  0  0  0  0  0  0  0  0  0  0  0
    9.3292   -7.8875    0.0000 C   0  0  0  0  0  0  0  0  0  0  0  0
    8.8417   -7.4042    0.0000 C   0  0  0  0  0  0  0  0  0  0  0  0
    5.6292   -8.4917    0.0000 C   0  0  0  0  0  0  0  0  0  0  0  0
    5.6292   -6.2417    0.0000 N   0  0  0  0  0  0  0  0  0  0  0  0
    6.9292   -5.4917    0.0000 N   0  0  0  0  0  0  0  0  0  0  0  0
    8.4917   -8.3625    0.0000 O   0  0  0  0  0  0  0  0  0  0  0  0
    9.7667   -8.7167    0.0000 O   0  0  0  0  0  0  0  0  0  0  0  0
    9.1917   -6.0792    0.0000 O   0  0  0  0  0  0  0  0  0  0  0  0
    8.3542   -6.5667    0.0000 O   0  0  0  0  0  0  0  0  0  0  0  0
    5.6292  -10.0042    0.0000 C   0  0  0  0  0  0  0  0  0  0  0  0
    8.9792   -9.2042    0.0000 O   0  0  0  0  0  0  0  0  0  0  0  0
    9.6750   -6.9167    0.0000 O   0  0  0  0  0  0  0  0  0  0  0  0
    4.3167   -7.7417    0.0000 C   0  0  0  0  0  0  0  0  0  0  0  0
    6.2792   -8.8750    0.0000 C   0  0  0  0  0  0  0  0  0  0  0  0
    6.9292   -6.2417    0.0000 C   0  0  0  0  0  0  0  0  0  0  0  0
    6.2792   -5.1167    0.0000 C   0  0  0  0  0  0  0  0  0  0  0  0
    6.2792   -6.6167    0.0000 C   0  0  0  0  0  0  0  0  0  0  0  0
    5.6292   -5.4917    0.0000 C   0  0  0  0  0  0  0  0  0  0  0  0
    4.9792   -7.3667    0.0000 C   0  0  0  0  0  0  0  0  0  0  0  0
    6.2792   -9.6292    0.0000 C   0  0  0  0  0  0  0  0  0  0  0  0
    6.9292   -8.5000    0.0000 Cl  0  0  0  0  0  0  0  0  0  0  0  0
    4.9792   -6.6167    0.0000 C   0  0  0  0  0  0  0  0  0  0  0  0
    3.0167   -8.4917    0.0000 C   0  0  0  0  0  0  0  0  0  0  0  0
    3.0167  -10.0042    0.0000 C   0  0  0  0  0  0  0  0  0  0  0  0
    7.5667   -5.1167    0.0000 C   0  0  0  0  0  0  0  0  0  0  0  0
    2.3667   -8.8750    0.0000 C   0  0  0  0  0  0  0  0  0  0  0  0
    2.3667   -9.6292    0.0000 C   0  0  0  0  0  0  0  0  0  0  0  0
  3  9  1  0
  4  1  1  0
  5  8  1  0
  6  1  1  0
  7  4  2  0
  8  6  2  0
  9 10  1  0
 10  2  1  0
 11  4  1  0
 12 30  1  0
 13 24  1  0
 14  3  2  0
 15  3  2  0
 16  2  2  0
 17  2  2  0
 18  7  1  0
 19  3  1  0
 20  2  1  0
 21  1  1  0
 22 11  2  0
 23 25  1  0
 24 26  1  0
 25 12  1  0
 26 12  1  0
 27 21  1  0
 28 22  1  0
 29 22  1  0
 30 27  1  0
 31  6  1  0
 32  8  1  0
 33 13  1  0
 34 31  2  0
 35 32  2  0
  5  7  1  0
 34 35  1  0
 18 28  2  0
 23 13  1  0
M  END
>  <ID>  (503) 


>  <MOLENAME>  (503) 
PROCHLORPERAZINE EDISYLATE

>  <therap>  (503) 
antiemetic, antipsychotic, treatment of vertigo

>  <ref>  (503) 
C R SeancesSoc Biol Ses Fil 152:1371 (1958); Can Psychiatr Assoc J 14:267 (1969); Br J Clin Pract 42:228 (1988)

>  <cas#>  (503) 
1257-78-9, 84-02-6 [prochlorperazine maleate], 58-38-8 [prochlorperazine]

>  <source>  (503) 
synthetic; Bay A-173; RP-6140, SKF-4657

>  <status>  (503) 
USP, JAN

>  <tradename>  (503) 
COMPAZINE

>  <SMILES>  (503) 
CN1CCN(CCCN2c3c(cccc3)Sc3c2cc(Cl)cc3)CC1

>  <standardized_failed>  (503) 
False

$$$$

     RDKit          2D

 22 23  0  0  0  0  0  0  0  0999 V2000
    7.2750   -4.9042    0.0000 C   0  0  0  0  0  0  0  0  0  0  0  0
    6.5250   -4.9042    0.0000 C   0  0  0  0  0  0  0  0  0  0  0  0
    5.4792   -4.2292    0.0000 N   0  0  0  0  0  0  0  0  0  0  0  0
    7.2750   -4.1542    0.0000 C   0  0  0  0  0  0  0  0  0  0  0  0
    6.1500   -4.2542    0.0000 C   0  0  0  0  0  0  0  0  0  0  0  0
    7.2750   -5.6542    0.0000 C   0  0  0  0  0  0  0  0  0  0  0  0
    8.0250   -4.9042    0.0000 O   0  0  0  0  0  0  0  0  0  0  0  0
    4.9250   -5.5542    0.0000 Cl  0  0  0  0  0  0  0  0  0  0  0  0
    5.0792   -4.8667    0.0000 C   0  0  0  0  0  0  0  0  0  0  0  0
    4.9917   -3.6625    0.0000 C   0  0  0  0  0  0  0  0  0  0  0  0
    7.9167   -3.7792    0.0000 C   0  0  0  0  0  0  0  0  0  0  0  0
    6.6250   -3.7792    0.0000 C   0  0  0  0  0  0  0  0  0  0  0  0
    7.9250   -6.0292    0.0000 C   0  0  0  0  0  0  0  0  0  0  0  0
    6.6292   -6.0292    0.0000 C   0  0  0  0  0  0  0  0  0  0  0  0
    4.2917   -3.9500    0.0000 C   0  0  0  0  0  0  0  0  0  0  0  0
    4.3542   -4.6792    0.0000 C   0  0  0  0  0  0  0  0  0  0  0  0
    6.6250   -3.0292    0.0000 C   0  0  0  0  0  0  0  0  0  0  0  0
    7.9167   -3.0292    0.0000 C   0  0  0  0  0  0  0  0  0  0  0  0
    6.6292   -6.7792    0.0000 C   0  0  0  0  0  0  0  0  0  0  0  0
    7.9250   -6.7792    0.0000 C   0  0  0  0  0  0  0  0  0  0  0  0
    7.2750   -7.1542    0.0000 C   0  0  0  0  0  0  0  0  0  0  0  0
    7.2750   -2.6542    0.0000 C   0  0  0  0  0  0  0  0  0  0  0  0
  2  1  1  0
  3  5  1  0
  4  1  1  0
  5  2  1  0
  6  1  1  0
  7  1  1  0
  9  3  1  0
 10  3  1  0
 11  4  2  0
 12  4  1  0
 13  6  1  0
 14  6  1  0
 15 10  1  0
 16  9  1  0
 17 12  2  0
 18 11  1  0
 19 14  1  0
 20 13  1  0
 21 20  1  0
 22 18  2  0
 19 21  1  0
 17 22  1  0
 16 15  1  0
M  END
>  <ID>  (504) 


>  <MOLENAME>  (504) 
PROCYCLIDINE HYDROCHLORIDE

>  <therap>  (504) 
anticholinergic

>  <ref>  (504) 
Arch Int Pharmacodyn 184:233 (1970); Neuropharmacology 44:739 (2003)

>  <cas#>  (504) 
1508-76-5, 77-37-2 [procyclidine]

>  <source>  (504) 
synthetic

>  <status>  (504) 
USP, INN, BAN

>  <tradename>  (504) 
KEMADRIN

>  <SMILES>  (504) 
OC(CCN1CCCC1)(c1ccccc1)C1CCCCC1

>  <standardized_failed>  (504) 
False

$$$$

     RDKit          2D

 21 22  0  0  0  0  0  0  0  0999 V2000
    6.1667   -5.5750    0.0000 N   0  0  0  0  0  0  0  0  0  0  0  0
    6.1667   -7.0792    0.0000 S   0  0  0  0  0  0  0  0  0  0  0  0
    5.5042   -5.9542    0.0000 C   0  0  0  0  0  0  0  0  0  0  0  0
    6.8167   -5.9542    0.0000 C   0  0  0  0  0  0  0  0  0  0  0  0
    6.8167   -6.7042    0.0000 C   0  0  0  0  0  0  0  0  0  0  0  0
    5.5042   -6.7042    0.0000 C   0  0  0  0  0  0  0  0  0  0  0  0
    6.1667   -4.8250    0.0000 C   0  0  0  0  0  0  0  0  0  0  0  0
    6.8167   -4.4417    0.0000 C   0  0  0  0  0  0  0  0  0  0  0  0
    7.4667   -3.3250    0.0000 N   0  0  0  0  0  0  0  0  0  0  0  0
    8.3250   -4.4667    0.0000 Cl  0  0  0  0  0  0  0  0  0  0  0  0
    4.8542   -5.5750    0.0000 C   0  0  0  0  0  0  0  0  0  0  0  0
    7.4792   -5.5750    0.0000 C   0  0  0  0  0  0  0  0  0  0  0  0
    7.4792   -7.0792    0.0000 C   0  0  0  0  0  0  0  0  0  0  0  0
    4.8542   -7.0792    0.0000 C   0  0  0  0  0  0  0  0  0  0  0  0
    6.8167   -3.7000    0.0000 C   0  0  0  0  0  0  0  0  0  0  0  0
    7.4667   -2.5750    0.0000 C   0  0  0  0  0  0  0  0  0  0  0  0
    8.1167   -3.7000    0.0000 C   0  0  0  0  0  0  0  0  0  0  0  0
    4.2167   -5.9542    0.0000 C   0  0  0  0  0  0  0  0  0  0  0  0
    8.1292   -5.9542    0.0000 C   0  0  0  0  0  0  0  0  0  0  0  0
    8.1292   -6.7042    0.0000 C   0  0  0  0  0  0  0  0  0  0  0  0
    4.2167   -6.7042    0.0000 C   0  0  0  0  0  0  0  0  0  0  0  0
  2  5  1  0
  3  1  1  0
  4  1  1  0
  5  4  2  0
  6  3  2  0
  7  1  1  0
  8  7  1  0
  9 15  1  0
 11  3  1  0
 12  4  1  0
 13  5  1  0
 14  6  1  0
 15  8  1  0
 16  9  1  0
 17  9  1  0
 18 11  2  0
 19 12  2  0
 20 19  1  0
 21 18  1  0
  2  6  1  0
 20 13  2  0
 21 14  2  0
M  END
>  <ID>  (505) 


>  <MOLENAME>  (505) 
PROMAZINE HYDROCHLORIDE

>  <therap>  (505) 
antipsychotic

>  <ref>  (505) 
Lancet. 273:925 (1957); Br Med J 1: 595 (1960); Pharmacology 33:311 (1986); J Biochem Toxicol 5:245 (1990)

>  <cas#>  (505) 
53-60-1, 58-40-2 [promazine]

>  <source>  (505) 
synthetic; RP-3276, Wy-1094, A-145 

>  <status>  (505) 
USP, INN, BAN

>  <tradename>  (505) 
SPARINE

>  <SMILES>  (505) 
CN(C)CCCN1c2c(cccc2)Sc2c1cccc2

>  <standardized_failed>  (505) 
False

$$$$

     RDKit          2D

 28 29  0  0  0  0  0  0  0  0999 V2000
    5.8792   -8.8667    0.0000 C   0  0  0  0  0  0  0  0  0  0  0  0
    5.8792  -10.5167    0.0000 O   0  0  0  0  0  0  0  0  0  0  0  0
    5.1667   -9.2792    0.0000 C   0  0  0  0  0  0  0  0  0  0  0  0
    6.6000   -9.2792    0.0000 C   0  0  0  0  0  0  0  0  0  0  0  0
    3.0167   -8.0417    0.0000 N   0  0  0  0  0  0  0  0  0  0  0  0
    5.1667  -10.1042    0.0000 C   0  0  0  0  0  0  0  0  0  0  0  0
    6.6000  -10.1042    0.0000 C   0  0  0  0  0  0  0  0  0  0  0  0
    5.8792   -8.0417    0.0000 C   0  0  0  0  0  0  0  0  0  0  0  0
    6.5917   -7.6292    0.0000 O   0  0  0  0  0  0  0  0  0  0  0  0
    5.1292   -5.7667    0.0000 Br  0  0  0  0  0  0  0  0  0  0  0  0
    2.6000   -7.3250    0.0000 C   0  0  0  0  0  0  0  0  0  0  0  0
    2.3000   -8.4542    0.0000 C   0  0  0  0  0  0  0  0  0  0  0  0
    5.1667   -7.6292    0.0000 O   0  0  0  0  0  0  0  0  0  0  0  0
    3.7292   -7.6292    0.0000 C   0  0  0  0  0  0  0  0  0  0  0  0
    3.0167   -8.9292    0.0000 C   0  0  0  0  0  0  0  0  0  0  0  0
    4.4500   -8.0417    0.0000 C   0  0  0  0  0  0  0  0  0  0  0  0
    4.4542   -8.8667    0.0000 C   0  0  0  0  0  0  0  0  0  0  0  0
    7.3125   -8.8667    0.0000 C   0  0  0  0  0  0  0  0  0  0  0  0
    7.3125  -10.5167    0.0000 C   0  0  0  0  0  0  0  0  0  0  0  0
    4.4542  -10.5167    0.0000 C   0  0  0  0  0  0  0  0  0  0  0  0
    1.7667   -7.3250    0.0000 C   0  0  0  0  0  0  0  0  0  0  0  0
    3.0125   -6.6042    0.0000 C   0  0  0  0  0  0  0  0  0  0  0  0
    1.5875   -8.0375    0.0000 C   0  0  0  0  0  0  0  0  0  0  0  0
    2.2917   -9.2792    0.0000 C   0  0  0  0  0  0  0  0  0  0  0  0
    8.0292   -9.2792    0.0000 C   0  0  0  0  0  0  0  0  0  0  0  0
    3.7417   -9.2792    0.0000 C   0  0  0  0  0  0  0  0  0  0  0  0
    3.7417  -10.1042    0.0000 C   0  0  0  0  0  0  0  0  0  0  0  0
    8.0292  -10.1042    0.0000 C   0  0  0  0  0  0  0  0  0  0  0  0
  2  7  1  0
  3  1  1  0
  4  1  1  0
  5 14  1  0
  6  3  2  0
  7  4  2  0
  8  1  1  0
  9  8  2  0
 11  5  1  0
 12  5  1  0
 13  8  1  0
 14 16  1  0
 15  5  1  0
 16 13  1  0
 17  3  1  0
 18  4  1  0
 19  7  1  0
 20  6  1  0
 21 11  1  0
 22 11  1  0
 23 12  1  0
 24 12  1  0
 25 18  2  0
 26 17  2  0
 27 26  1  0
 28 25  1  0
  6  2  1  0
 28 19  2  0
 27 20  2  0
M  CHG  2   5   1  10  -1
M  END
>  <ID>  (506) 


>  <MOLENAME>  (506) 
PROPANTHELINE BROMIDE

>  <therap>  (506) 
anticholinergic

>  <ref>  (506) 
Clin Pharmacol Ther 13:212 (1972); Fundamental Appl Toxicol 9:496 (1987)

>  <cas#>  (506) 
50-34-0, 298-50-0 [propantheline]

>  <source>  (506) 
synthetic

>  <status>  (506) 
USP, INN, BAN, JAN

>  <tradename>  (506) 
PROBANTHINE

>  <SMILES>  (506) 
CC(C)[N+](C)(CCOC(=O)C1c2c(cccc2)Oc2c1cccc2)C(C)C

>  <standardized_failed>  (506) 
False

$$$$

     RDKit          2D

 20 20  0  0  0  0  0  0  0  0999 V2000
    2.5292   -2.1042    0.0000 C   0  0  0  0  0  0  0  0  0  0  0  0
    3.1792   -1.7292    0.0000 C   0  0  0  0  0  0  0  0  0  0  0  0
    3.1792   -0.9792    0.0000 O   0  0  0  0  0  0  0  0  0  0  0  0
    3.1792    1.2708    0.0000 N   0  0  0  0  0  0  0  0  0  0  0  0
    2.5292   -2.8542    0.0000 C   0  0  0  0  0  0  0  0  0  0  0  0
    3.8292    0.1458    0.0000 C   0  0  0  0  0  0  0  0  0  0  0  0
    3.8292   -0.6042    0.0000 C   0  0  0  0  0  0  0  0  0  0  0  0
    3.1792    0.5208    0.0000 C   0  0  0  0  0  0  0  0  0  0  0  0
    1.6542   -0.1042    0.0000 Cl  0  0  0  0  0  0  0  0  0  0  0  0
    4.4792    0.5208    0.0000 O   0  0  0  0  0  0  0  0  0  0  0  0
    2.5292    1.6458    0.0000 C   0  0  0  0  0  0  0  0  0  0  0  0
    3.8417   -2.8542    0.0000 C   0  0  0  0  0  0  0  0  0  0  0  0
    3.8417   -2.1042    0.0000 C   0  0  0  0  0  0  0  0  0  0  0  0
    1.8792   -1.7292    0.0000 C   0  0  0  0  0  0  0  0  0  0  0  0
    3.1792   -3.2292    0.0000 C   0  0  0  0  0  0  0  0  0  0  0  0
    1.8792   -3.2292    0.0000 C   0  0  0  0  0  0  0  0  0  0  0  0
    2.5292    2.3958    0.0000 C   0  0  0  0  0  0  0  0  0  0  0  0
    1.8792    1.2708    0.0000 C   0  0  0  0  0  0  0  0  0  0  0  0
    1.2292   -2.1042    0.0000 C   0  0  0  0  0  0  0  0  0  0  0  0
    1.2292   -2.8542    0.0000 C   0  0  0  0  0  0  0  0  0  0  0  0
  2  1  2  0
  3  2  1  0
  4  8  1  0
  5  1  1  0
  6  7  1  0
  7  3  1  0
  8  6  1  0
  6 10  1  6
 11  4  1  0
 12 15  1  0
 13  2  1  0
 14  1  1  0
 15  5  2  0
 16  5  1  0
 17 11  1  0
 18 11  1  0
 19 14  2  0
 20 19  1  0
 12 13  2  0
 20 16  2  0
M  END
>  <ID>  (507) 


>  <MOLENAME>  (507) 
DEXPROPRANOLOL HYDROCHLORIDE

>  <therap>  (507) 
antihypertensive, antianginal, antiarrhythmic

>  <ref>  (507) 
J. Med. Chem. (1971), 14(4), 326-8; Br. Med. J. (1969), 4(5680), 399-401; J. Med. Chem. (1968), 11(6), 1118-21

>  <cas#>  (507) 
13071-11-9

>  <source>  (507) 
synthetic; AY-20694, ICI-47319

>  <status>  (507) 
USAN, INN, BAN

>  <tradename>  (507) 
nan

>  <SMILES>  (507) 
CC(C)NC[C@H](O)COc1c2ccccc2ccc1

>  <standardized_failed>  (507) 
False

$$$$

     RDKit          2D

 13 13  0  0  0  0  0  0  0  0999 V2000
    5.3333   -3.0833    0.0000 C   0  0  0  0  0  0  0  0  0  0  0  0
    5.3292   -2.2583    0.0000 C   0  0  0  0  0  0  0  0  0  0  0  0
    6.0500   -3.4958    0.0000 C   0  0  0  0  0  0  0  0  0  0  0  0
    4.6208   -3.5000    0.0000 C   0  0  0  0  0  0  0  0  0  0  0  0
    6.0500   -4.3250    0.0000 C   0  0  0  0  0  0  0  0  0  0  0  0
    4.6208   -4.3250    0.0000 C   0  0  0  0  0  0  0  0  0  0  0  0
    5.3333   -4.7375    0.0000 C   0  0  0  0  0  0  0  0  0  0  0  0
    6.7625   -3.0792    0.0000 O   0  0  0  0  0  0  0  0  0  0  0  0
    3.9042   -4.7375    0.0000 O   0  0  0  0  0  0  0  0  0  0  0  0
    6.0458   -1.8458    0.0000 C   0  0  0  0  0  0  0  0  0  0  0  0
    4.6167   -1.8500    0.0000 C   0  0  0  0  0  0  0  0  0  0  0  0
    5.3250   -1.4292    0.0000 C   0  0  0  0  0  0  0  0  0  0  0  0
    3.1917   -4.3250    0.0000 C   0  0  0  0  0  0  0  0  0  0  0  0
  2  1  1  0
  3  1  2  0
  4  1  1  0
  5  3  1  0
  6  4  2  0
  7  6  1  0
  8  3  1  0
  9  6  1  0
 10  2  1  0
 11  2  1  0
 12  2  1  0
 13  9  1  0
  5  7  2  0
M  END
>  <ID>  (508) 


>  <MOLENAME>  (508) 
BUTYLATED HYDROXYANISOLE

>  <therap>  (508) 
antioxidant

>  <ref>  (508) 
Chem Biol Interact 80:109 (1991); Food Chem Toxicol 37:1027 (1999)

>  <cas#>  (508) 
25013-16-5

>  <source>  (508) 
synthetic 

>  <status>  (508) 
NF, BAN

>  <tradename>  (508) 
nan

>  <SMILES>  (508) 
COc1cc(C(C)(C)C)c(O)cc1

>  <standardized_failed>  (508) 
False

$$$$

     RDKit          2D

 10 11  0  0  0  0  0  0  0  0999 V2000
    1.1375   -0.3292    0.0000 N   0  0  0  0  0  0  0  0  0  0  0  0
    0.6042    0.2000    0.0000 N   0  0  0  0  0  0  0  0  0  0  0  0
   -0.0583   -0.1417    0.0000 N   0  0  0  0  0  0  0  0  0  0  0  0
    0.8042   -0.9875    0.0000 N   0  0  0  0  0  0  0  0  0  0  0  0
    0.0667   -0.8792    0.0000 C   0  0  0  0  0  0  0  0  0  0  0  0
   -0.7125    0.2083    0.0000 C   0  0  0  0  0  0  0  0  0  0  0  0
   -0.4250   -1.4417    0.0000 C   0  0  0  0  0  0  0  0  0  0  0  0
   -1.4083   -0.0792    0.0000 C   0  0  0  0  0  0  0  0  0  0  0  0
   -1.1625   -1.4000    0.0000 C   0  0  0  0  0  0  0  0  0  0  0  0
   -1.6125   -0.8000    0.0000 C   0  0  0  0  0  0  0  0  0  0  0  0
  2  1  2  0
  3  2  1  0
  4  1  1  0
  5  4  2  0
  6  3  1  0
  7  5  1  0
  8  6  1  0
  9  7  1  0
 10  9  1  0
  5  3  1  0
 10  8  1  0
M  END
>  <ID>  (509) 


>  <MOLENAME>  (509) 
PENTYLENETETRAZOL

>  <therap>  (509) 
analeptic, circulation stimulant

>  <ref>  (509) 
Toxicol Appl Pharmacol 18:185 (1971)

>  <cas#>  (509) 
54-95-5

>  <source>  (509) 
synthetic

>  <status>  (509) 
NF-XIII, INN, BAN

>  <tradename>  (509) 
CARDIAZOL

>  <SMILES>  (509) 
C1CCc2nnnn2CC1

>  <standardized_failed>  (509) 
False

$$$$

     RDKit          2D

 43 47  0  0  0  0  0  0  0  0999 V2000
    7.6667   -6.5542    0.0000 C   0  0  0  0  0  0  0  0  0  0  0  0
   10.1542   -8.9417    0.0000 C   0  0  0  0  0  0  0  0  0  0  0  0
    9.3292   -8.1542    0.0000 C   0  0  0  0  0  0  0  0  0  0  0  0
    8.4875   -7.3667    0.0000 C   0  0  0  0  0  0  0  0  0  0  0  0
    8.3167   -6.7375    0.0000 C   0  0  0  0  0  0  0  0  0  0  0  0
    9.9667   -8.3125    0.0000 C   0  0  0  0  0  0  0  0  0  0  0  0
    2.4042   -8.3542    0.0000 C   0  0  0  0  0  0  0  0  0  0  0  0
    9.1375   -7.5167    0.0000 C   0  0  0  0  0  0  0  0  0  0  0  0
    7.2042   -7.0292    0.0000 C   0  0  0  0  0  0  0  0  0  0  0  0
    9.7042   -9.4250    0.0000 C   0  0  0  0  0  0  0  0  0  0  0  0
   10.8125   -9.1000    0.0000 C   0  0  0  0  0  0  0  0  0  0  0  0
    7.4917   -5.9125    0.0000 C   0  0  0  0  0  0  0  0  0  0  0  0
    1.6917   -7.9417    0.0000 N   0  0  0  0  0  0  0  0  0  0  0  0
    8.0167   -7.8417    0.0000 C   0  0  0  0  0  0  0  0  0  0  0  0
    8.8667   -8.6417    0.0000 C   0  0  0  0  0  0  0  0  0  0  0  0
    2.4042   -9.1875    0.0000 N   0  0  0  0  0  0  0  0  0  0  0  0
    3.1292   -7.9292    0.0000 C   0  0  0  0  0  0  0  0  0  0  0  0
    7.3792   -7.6667    0.0000 C   0  0  0  0  0  0  0  0  0  0  0  0
    9.0542   -9.2667    0.0000 C   0  0  0  0  0  0  0  0  0  0  0  0
    3.8292   -6.6875    0.0000 C   0  0  0  0  0  0  0  0  0  0  0  0
    3.1167   -7.1000    0.0000 C   0  0  0  0  0  0  0  0  0  0  0  0
    4.0042   -5.8792    0.0000 S   0  0  0  0  0  0  0  0  0  0  0  0
    4.8250   -5.7917    0.0000 C   0  0  0  0  0  0  0  0  0  0  0  0
   11.2667   -8.6125    0.0000 O   0  0  0  0  0  0  0  0  0  0  0  0
    6.8542   -5.7417    0.0000 O   0  0  0  0  0  0  0  0  0  0  0  0
    4.5500   -7.1000    0.0000 C   0  0  0  0  0  0  0  0  0  0  0  0
    5.1667   -6.5417    0.0000 C   0  0  0  0  0  0  0  0  0  0  0  0
   10.4125   -7.8250    0.0000 O   0  0  0  0  0  0  0  0  0  0  0  0
    8.7917   -6.2792    0.0000 O   0  0  0  0  0  0  0  0  0  0  0  0
    7.9625   -5.4417    0.0000 O   0  0  0  0  0  0  0  0  0  0  0  0
   11.0042   -9.7417    0.0000 O   0  0  0  0  0  0  0  0  0  0  0  0
    0.9792   -8.3542    0.0000 C   0  0  0  0  0  0  0  0  0  0  0  0
    1.6917   -9.6000    0.0000 C   0  0  0  0  0  0  0  0  0  0  0  0
    1.6917   -7.1167    0.0000 C   0  0  0  0  0  0  0  0  0  0  0  0
    0.9792   -9.1875    0.0000 C   0  0  0  0  0  0  0  0  0  0  0  0
    8.1917   -8.4792    0.0000 C   0  0  0  0  0  0  0  0  0  0  0  0
    8.3542   -8.5250    0.0000 C   0  0  0  0  0  0  0  0  0  0  0  0
    6.9042   -8.1417    0.0000 C   0  0  0  0  0  0  0  0  0  0  0  0
    8.6042   -9.7542    0.0000 C   0  0  0  0  0  0  0  0  0  0  0  0
    7.9000   -9.0167    0.0000 C   0  0  0  0  0  0  0  0  0  0  0  0
    7.7250   -8.9542    0.0000 C   0  0  0  0  0  0  0  0  0  0  0  0
    7.9667   -9.6042    0.0000 C   0  0  0  0  0  0  0  0  0  0  0  0
    7.0792   -8.7750    0.0000 C   0  0  0  0  0  0  0  0  0  0  0  0
  2  6  2  0
  3  8  1  0
  4  5  1  0
  5  1  2  0
  6  3  1  0
  8  4  1  0
  9  1  1  0
 10 19  2  0
 11  2  1  0
 12  1  1  0
 13  7  1  0
 14 18  1  0
 15  3  2  0
 16  7  2  0
 17  7  1  0
 18  9  2  0
 19 15  1  0
 20 21  1  0
 21 17  2  0
 22 20  1  0
 23 22  1  0
 24 11  2  0
 25 12  2  0
 26 20  2  0
 27 26  1  0
 28  6  1  0
 29  5  1  0
 30 12  1  0
 31 11  1  0
 32 13  1  0
 33 16  1  0
 34 13  1  0
 35 33  1  0
 36 14  1  0
 37 15  1  0
 38 18  1  0
 39 19  1  0
 40 37  2  0
 41 36  2  0
 42 40  1  0
 43 38  2  0
  4 14  2  0
 43 41  1  0
  2 10  1  0
 39 42  2  0
 35 32  1  0
 23 27  2  0
M  END
>  <ID>  (510) 


>  <MOLENAME>  (510) 
PYRANTEL PAMOATE

>  <therap>  (510) 
anthelmintic

>  <ref>  (510) 
Vet Rec 79:590 (1966); J Parasitol 53:1085 (9167); J Pharm Pharmacol 22:26 (1970)

>  <cas#>  (510) 
22204-24-6, 15686-83-6 [pyrantel]

>  <source>  (510) 
synthetic; CP-10423-16

>  <status>  (510) 
USP, INN, BAN, JAN

>  <tradename>  (510) 
NEMEX

>  <SMILES>  (510) 
CN1CCCN=C1/C=C/c1cccs1

>  <standardized_failed>  (510) 
False

$$$$

     RDKit          2D

  9  9  0  0  0  0  0  0  0  0999 V2000
    4.9042   -1.3042    0.0000 C   0  0  0  0  0  0  0  0  0  0  0  0
    5.5625   -0.9292    0.0000 C   0  0  0  0  0  0  0  0  0  0  0  0
    4.2542   -0.9292    0.0000 N   0  0  0  0  0  0  0  0  0  0  0  0
    6.2125   -1.3042    0.0000 O   0  0  0  0  0  0  0  0  0  0  0  0
    4.2542   -2.4292    0.0000 N   0  0  0  0  0  0  0  0  0  0  0  0
    5.5625   -0.1792    0.0000 N   0  0  0  0  0  0  0  0  0  0  0  0
    4.9042   -2.0542    0.0000 C   0  0  0  0  0  0  0  0  0  0  0  0
    3.6125   -1.3042    0.0000 C   0  0  0  0  0  0  0  0  0  0  0  0
    3.6125   -2.0542    0.0000 C   0  0  0  0  0  0  0  0  0  0  0  0
  2  1  1  0
  3  1  2  0
  4  2  2  0
  5  7  2  0
  6  2  1  0
  7  1  1  0
  8  3  1  0
  9  5  1  0
  9  8  2  0
M  END
>  <ID>  (511) 


>  <MOLENAME>  (511) 
PYRAZINAMIDE

>  <therap>  (511) 
antibacterial, tuberculostatic

>  <ref>  (511) 
J Pharmacol Exp Ther 180:411 (1972); Chest 94:845 (1988); JAMA 283:1445 (2000) 

>  <cas#>  (511) 
98-96-4

>  <source>  (511) 
synthetic; D-50

>  <status>  (511) 
USP, INN, BAN, JAN

>  <tradename>  (511) 
TEBRAZID

>  <SMILES>  (511) 
NC(=O)c1nccnc1

>  <standardized_failed>  (511) 
False

$$$$

     RDKit          2D

 29 29  0  0  0  0  0  0  0  0999 V2000
    5.4417   -8.2417    0.0000 N   0  0  0  0  0  0  0  0  0  0  0  0
    4.6917   -8.2417    0.0000 C   0  0  0  0  0  0  0  0  0  0  0  0
   10.3542   -6.6375    0.0000 C   0  0  0  0  0  0  0  0  0  0  0  0
    9.1625   -7.3292    0.0000 C   0  0  0  0  0  0  0  0  0  0  0  0
    9.1625   -6.6375    0.0000 C   0  0  0  0  0  0  0  0  0  0  0  0
    9.7542   -6.2917    0.0000 C   0  0  0  0  0  0  0  0  0  0  0  0
    4.3167   -7.6000    0.0000 N   0  0  0  0  0  0  0  0  0  0  0  0
    5.8167   -8.8875    0.0000 C   0  0  0  0  0  0  0  0  0  0  0  0
    5.8167   -7.5917    0.0000 C   0  0  0  0  0  0  0  0  0  0  0  0
   10.9500   -6.2917    0.0000 O   0  0  0  0  0  0  0  0  0  0  0  0
    8.5667   -7.6750    0.0000 O   0  0  0  0  0  0  0  0  0  0  0  0
    6.5667   -8.8875    0.0000 C   0  0  0  0  0  0  0  0  0  0  0  0
    6.9417   -6.9500    0.0000 N   0  0  0  0  0  0  0  0  0  0  0  0
    6.5667   -7.5917    0.0000 C   0  0  0  0  0  0  0  0  0  0  0  0
    8.0667   -8.8875    0.0000 C   0  0  0  0  0  0  0  0  0  0  0  0
   10.3542   -7.3292    0.0000 O   0  0  0  0  0  0  0  0  0  0  0  0
    9.7542   -7.6750    0.0000 O   0  0  0  0  0  0  0  0  0  0  0  0
    6.9417   -8.2417    0.0000 C   0  0  0  0  0  0  0  0  0  0  0  0
    6.9417   -9.5375    0.0000 C   0  0  0  0  0  0  0  0  0  0  0  0
    7.6917   -8.2417    0.0000 C   0  0  0  0  0  0  0  0  0  0  0  0
    7.6917   -9.5375    0.0000 C   0  0  0  0  0  0  0  0  0  0  0  0
    8.8167   -8.8875    0.0000 O   0  0  0  0  0  0  0  0  0  0  0  0
    4.3167   -8.8917    0.0000 C   0  0  0  0  0  0  0  0  0  0  0  0
    3.5667   -7.6000    0.0000 C   0  0  0  0  0  0  0  0  0  0  0  0
    6.5667   -6.3000    0.0000 C   0  0  0  0  0  0  0  0  0  0  0  0
    7.6917   -6.9500    0.0000 C   0  0  0  0  0  0  0  0  0  0  0  0
    9.1917   -8.2417    0.0000 C   0  0  0  0  0  0  0  0  0  0  0  0
    3.5667   -8.8917    0.0000 C   0  0  0  0  0  0  0  0  0  0  0  0
    3.1917   -8.2417    0.0000 C   0  0  0  0  0  0  0  0  0  0  0  0
  2  1  1  0
  4  5  1  0
  5  6  2  0
  6  3  1  0
  7  2  2  0
  8  1  1  0
  9  1  1  0
 10  3  2  0
 11  4  2  0
 12  8  1  0
 13 14  1  0
 14  9  1  0
 15 21  2  0
 16  3  1  0
 17  4  1  0
 18 12  1  0
 19 12  2  0
 20 18  2  0
 21 19  1  0
 22 15  1  0
 23  2  1  0
 24  7  1  0
 25 13  1  0
 26 13  1  0
 27 22  1  0
 28 23  2  0
 29 24  2  0
 20 15  1  0
 29 28  1  0
M  END
>  <ID>  (512) 


>  <MOLENAME>  (512) 
PYRILAMINE MALEATE

>  <therap>  (512) 
antihistaminic

>  <ref>  (512) 
Arzneim Forsch 7:237 (1957); 13:324 (1963)

>  <cas#>  (512) 
59-33-6, 91-84-9 [pyrilamine]

>  <source>  (512) 
synthetic; RP-2786

>  <status>  (512) 
USP, INN, BAN

>  <tradename>  (512) 
ANTAMINE

>  <SMILES>  (512) 
COc1ccc(CN(CCN(C)C)c2ncccc2)cc1

>  <standardized_failed>  (512) 
False

$$$$

     RDKit          2D

 17 18  0  0  0  0  0  0  0  0999 V2000
    2.0667   -2.7292    0.0000 N   0  0  0  0  0  0  0  0  0  0  0  0
    2.8167   -2.7292    0.0000 C   0  0  0  0  0  0  0  0  0  0  0  0
    3.1917   -2.0792    0.0000 C   0  0  0  0  0  0  0  0  0  0  0  0
    1.6917   -2.0792    0.0000 C   0  0  0  0  0  0  0  0  0  0  0  0
    2.8167   -1.4375    0.0000 C   0  0  0  0  0  0  0  0  0  0  0  0
    2.0667   -1.4375    0.0000 N   0  0  0  0  0  0  0  0  0  0  0  0
    3.9417   -2.0792    0.0000 C   0  0  0  0  0  0  0  0  0  0  0  0
    3.2000   -3.3875    0.0000 N   0  0  0  0  0  0  0  0  0  0  0  0
    0.9417   -2.0792    0.0000 N   0  0  0  0  0  0  0  0  0  0  0  0
    4.3167   -1.4292    0.0000 C   0  0  0  0  0  0  0  0  0  0  0  0
    4.3167   -2.7292    0.0000 C   0  0  0  0  0  0  0  0  0  0  0  0
    5.4417   -2.0792    0.0000 C   0  0  0  0  0  0  0  0  0  0  0  0
    5.0667   -2.7292    0.0000 C   0  0  0  0  0  0  0  0  0  0  0  0
    5.0667   -1.4292    0.0000 C   0  0  0  0  0  0  0  0  0  0  0  0
    6.1917   -2.0917    0.0000 Cl  0  0  0  0  0  0  0  0  0  0  0  0
    3.2042   -0.7792    0.0000 C   0  0  0  0  0  0  0  0  0  0  0  0
    3.9542   -0.7875    0.0000 C   0  0  0  0  0  0  0  0  0  0  0  0
  2  1  2  0
  3  2  1  0
  4  1  1  0
  5  6  1  0
  6  4  2  0
  7  3  1  0
  8  2  1  0
  9  4  1  0
 10  7  2  0
 11  7  1  0
 12 13  1  0
 13 11  2  0
 14 10  1  0
 15 12  1  0
 16  5  1  0
 17 16  1  0
  5  3  2  0
 14 12  2  0
M  END
>  <ID>  (513) 


>  <MOLENAME>  (513) 
PYRIMETHAMINE

>  <therap>  (513) 
antimalarial

>  <ref>  (513) 
Am J Med 84:94 (1988); Ann Intern Med 116:33 (1992); Br Med J 328:545 (2004)

>  <cas#>  (513) 
58-14-0

>  <source>  (513) 
synthetic; RP-4753

>  <status>  (513) 
USP, INN, BAN, JAN

>  <tradename>  (513) 
DARAPRIM

>  <SMILES>  (513) 
CCc1c(-c2ccc(Cl)cc2)c(N)nc(N)n1

>  <standardized_failed>  (513) 
False

$$$$

     RDKit          2D

 58 64  0  0  0  0  0  0  0  0999 V2000
    2.0375   -7.7917    0.0000 N   0  0  0  0  0  0  0  0  0  0  0  0
    5.8542   -7.6625    0.0000 N   0  0  0  0  0  0  0  0  0  0  0  0
   10.1167   -7.5792    0.0000 C   0  0  0  0  0  0  0  0  0  0  0  0
   12.6625  -10.0292    0.0000 C   0  0  0  0  0  0  0  0  0  0  0  0
    5.5500   -6.9750    0.0000 C   0  0  0  0  0  0  0  0  0  0  0  0
   11.8125   -9.2250    0.0000 C   0  0  0  0  0  0  0  0  0  0  0  0
   10.9542   -8.4125    0.0000 C   0  0  0  0  0  0  0  0  0  0  0  0
    4.6417   -7.7875    0.0000 C   0  0  0  0  0  0  0  0  0  0  0  0
    5.2917   -8.1625    0.0000 C   0  0  0  0  0  0  0  0  0  0  0  0
   10.7792   -7.7667    0.0000 C   0  0  0  0  0  0  0  0  0  0  0  0
   12.4625   -9.3792    0.0000 C   0  0  0  0  0  0  0  0  0  0  0  0
    4.8042   -7.0500    0.0000 C   0  0  0  0  0  0  0  0  0  0  0  0
    1.3917   -8.1667    0.0000 C   0  0  0  0  0  0  0  0  0  0  0  0
   11.6167   -8.5667    0.0000 C   0  0  0  0  0  0  0  0  0  0  0  0
   12.1917  -10.5167    0.0000 C   0  0  0  0  0  0  0  0  0  0  0  0
    9.6375   -8.0625    0.0000 C   0  0  0  0  0  0  0  0  0  0  0  0
    9.9292   -6.9250    0.0000 C   0  0  0  0  0  0  0  0  0  0  0  0
   13.3292  -10.1875    0.0000 C   0  0  0  0  0  0  0  0  0  0  0  0
   10.4667   -8.8917    0.0000 C   0  0  0  0  0  0  0  0  0  0  0  0
   11.3417   -9.7167    0.0000 C   0  0  0  0  0  0  0  0  0  0  0  0
    3.9917   -8.1625    0.0000 C   0  0  0  0  0  0  0  0  0  0  0  0
    2.6875   -8.1667    0.0000 C   0  0  0  0  0  0  0  0  0  0  0  0
    1.3917   -8.9167    0.0000 C   0  0  0  0  0  0  0  0  0  0  0  0
    9.8167   -8.7167    0.0000 C   0  0  0  0  0  0  0  0  0  0  0  0
   11.5375  -10.3625    0.0000 C   0  0  0  0  0  0  0  0  0  0  0  0
    3.3417   -7.7875    0.0000 C   0  0  0  0  0  0  0  0  0  0  0  0
    0.1000   -8.9167    0.0000 C   0  0  0  0  0  0  0  0  0  0  0  0
    0.7500   -9.2917    0.0000 C   0  0  0  0  0  0  0  0  0  0  0  0
    0.7500   -7.7917    0.0000 C   0  0  0  0  0  0  0  0  0  0  0  0
    6.5875   -7.7792    0.0000 C   0  0  0  0  0  0  0  0  0  0  0  0
   -0.5583   -9.3000    0.0000 N   0  0  0  0  0  0  0  0  0  0  0  0
   10.4125   -6.4375    0.0000 O   0  0  0  0  0  0  0  0  0  0  0  0
    0.1000   -8.1667    0.0000 C   0  0  0  0  0  0  0  0  0  0  0  0
    9.2792   -6.7500    0.0000 O   0  0  0  0  0  0  0  0  0  0  0  0
   13.7917   -9.6875    0.0000 O   0  0  0  0  0  0  0  0  0  0  0  0
    2.0375   -9.2917    0.0000 C   0  0  0  0  0  0  0  0  0  0  0  0
    2.6875   -8.9167    0.0000 C   0  0  0  0  0  0  0  0  0  0  0  0
    2.0375   -7.0417    0.0000 C   0  0  0  0  0  0  0  0  0  0  0  0
   12.9167   -8.8792    0.0000 O   0  0  0  0  0  0  0  0  0  0  0  0
   11.2667   -7.2917    0.0000 O   0  0  0  0  0  0  0  0  0  0  0  0
   13.5292  -10.8417    0.0000 O   0  0  0  0  0  0  0  0  0  0  0  0
    5.9250   -6.3250    0.0000 C   0  0  0  0  0  0  0  0  0  0  0  0
    5.3667   -8.9125    0.0000 C   0  0  0  0  0  0  0  0  0  0  0  0
   10.6417   -9.5542    0.0000 C   0  0  0  0  0  0  0  0  0  0  0  0
   10.8167   -9.5917    0.0000 C   0  0  0  0  0  0  0  0  0  0  0  0
    9.3292   -9.2042    0.0000 C   0  0  0  0  0  0  0  0  0  0  0  0
   11.0667  -10.8542    0.0000 C   0  0  0  0  0  0  0  0  0  0  0  0
   -1.2083   -8.9250    0.0000 C   0  0  0  0  0  0  0  0  0  0  0  0
   -0.5583  -10.0500    0.0000 C   0  0  0  0  0  0  0  0  0  0  0  0
    7.0625   -7.2000    0.0000 C   0  0  0  0  0  0  0  0  0  0  0  0
    6.8500   -8.4750    0.0000 C   0  0  0  0  0  0  0  0  0  0  0  0
   10.3500  -10.1000    0.0000 C   0  0  0  0  0  0  0  0  0  0  0  0
   10.1750  -10.0292    0.0000 C   0  0  0  0  0  0  0  0  0  0  0  0
   10.4167  -10.7000    0.0000 C   0  0  0  0  0  0  0  0  0  0  0  0
    9.5042   -9.8500    0.0000 C   0  0  0  0  0  0  0  0  0  0  0  0
    7.5917   -8.6000    0.0000 C   0  0  0  0  0  0  0  0  0  0  0  0
    7.8000   -7.3250    0.0000 C   0  0  0  0  0  0  0  0  0  0  0  0
    8.0667   -8.0125    0.0000 C   0  0  0  0  0  0  0  0  0  0  0  0
  2  9  1  0
  4 11  2  0
  5 12  2  0
  6 14  1  0
  7 10  1  0
  8 21  1  0
  9  8  2  0
 10  3  2  0
 11  6  1  0
 12  8  1  0
 13  1  2  0
 14  7  1  0
 15 25  2  0
 16  3  1  0
 17  3  1  0
 18  4  1  0
 19 24  1  0
 20  6  2  0
 21 26  2  0
 22  1  1  0
 23 13  1  0
 24 16  2  0
 25 20  1  0
 26 22  1  0
 27 33  1  0
 28 23  1  0
 29 13  1  0
 30  2  1  0
 31 27  1  0
 32 17  1  0
 33 29  2  0
 34 17  2  0
 35 18  2  0
 36 37  1  0
 37 22  2  0
 38  1  1  0
 39 11  1  0
 40 10  1  0
 41 18  1  0
 42  5  1  0
 43  9  1  0
 44 19  1  0
 45 20  1  0
 46 24  1  0
 47 25  1  0
 48 31  1  0
 49 31  1  0
 50 30  2  0
 51 30  1  0
 52 45  2  0
 53 55  1  0
 54 52  1  0
 55 46  2  0
 56 51  2  0
 57 50  1  0
 58 57  2  0
 36 23  2  0
 27 28  2  0
  5  2  1  0
 56 58  1  0
  7 19  2  0
 44 53  2  0
  4 15  1  0
 47 54  2  0
M  CHG  2   1   1  32  -1
M  END
>  <ID>  (514) 


>  <MOLENAME>  (514) 
PYRVINIUM PAMOATE

>  <therap>  (514) 
anthelmintic

>  <ref>  (514) 
Am J Nursing 62:24 (1962); Toxicol Appl Pharmacol 74:293 (1984)

>  <cas#>  (514) 
3546-41-6

>  <source>  (514) 
synthetic

>  <status>  (514) 
USP, BAN, JAN

>  <tradename>  (514) 
POVAN

>  <SMILES>  (514) 
Cc1cc(/C=C/c2ccc3cc(N(C)C)ccc3[n+]2C)c(C)n1-c1ccccc1

>  <standardized_failed>  (514) 
False

$$$$

     RDKit          2D

 30 30  0  0  0  0  0  0  0  0999 V2000
    5.9667   -6.3167    0.0000 C   0  0  0  0  0  0  0  0  0  0  0  0
    6.6167   -6.6917    0.0000 C   0  0  0  0  0  0  0  0  0  0  0  0
    5.3250   -6.6917    0.0000 C   0  0  0  0  0  0  0  0  0  0  0  0
    5.9667   -7.8167    0.0000 N   0  0  0  0  0  0  0  0  0  0  0  0
    5.3250   -7.4417    0.0000 C   0  0  0  0  0  0  0  0  0  0  0  0
    6.6167   -7.4417    0.0000 C   0  0  0  0  0  0  0  0  0  0  0  0
    5.9667   -5.5667    0.0000 N   0  0  0  0  0  0  0  0  0  0  0  0
    4.6792   -7.8167    0.0000 C   0  0  0  0  0  0  0  0  0  0  0  0
    4.6792   -6.3167    0.0000 C   0  0  0  0  0  0  0  0  0  0  0  0
    7.2667   -6.3167    0.0000 C   0  0  0  0  0  0  0  0  0  0  0  0
    7.2667   -7.8167    0.0000 C   0  0  0  0  0  0  0  0  0  0  0  0
    4.0292   -7.4417    0.0000 C   0  0  0  0  0  0  0  0  0  0  0  0
    7.9167   -6.6917    0.0000 C   0  0  0  0  0  0  0  0  0  0  0  0
    4.0292   -6.6917    0.0000 C   0  0  0  0  0  0  0  0  0  0  0  0
    4.0292   -2.9417    0.0000 N   0  0  0  0  0  0  0  0  0  0  0  0
    7.9167   -7.4417    0.0000 C   0  0  0  0  0  0  0  0  0  0  0  0
    3.3750   -7.8292    0.0000 Cl  0  0  0  0  0  0  0  0  0  0  0  0
    6.8542   -4.6542    0.0000 Cl  0  0  0  0  0  0  0  0  0  0  0  0
    5.4542   -2.4375    0.0000 Cl  0  0  0  0  0  0  0  0  0  0  0  0
    5.3250   -5.1917    0.0000 C   0  0  0  0  0  0  0  0  0  0  0  0
    8.5667   -6.3167    0.0000 O   0  0  0  0  0  0  0  0  0  0  0  0
    4.6792   -4.0667    0.0000 C   0  0  0  0  0  0  0  0  0  0  0  0
    4.6792   -3.3167    0.0000 C   0  0  0  0  0  0  0  0  0  0  0  0
    3.3875   -3.3167    0.0000 C   0  0  0  0  0  0  0  0  0  0  0  0
    4.0292   -2.1917    0.0000 C   0  0  0  0  0  0  0  0  0  0  0  0
    5.3250   -4.4417    0.0000 C   0  0  0  0  0  0  0  0  0  0  0  0
    9.2167   -6.6917    0.0000 C   0  0  0  0  0  0  0  0  0  0  0  0
    4.6792   -5.5667    0.0000 C   0  0  0  0  0  0  0  0  0  0  0  0
    3.3875   -4.0667    0.0000 C   0  0  0  0  0  0  0  0  0  0  0  0
    3.3875   -1.8167    0.0000 C   0  0  0  0  0  0  0  0  0  0  0  0
  2  1  2  0
  3  1  1  0
  4  5  1  0
  5  3  2  0
  6  2  1  0
  7  1  1  0
  8  5  1  0
  9  3  1  0
 10  2  1  0
 11  6  1  0
 12 14  1  0
 13 10  2  0
 14  9  2  0
 15 23  1  0
 16 13  1  0
 17 12  1  0
 20  7  1  0
 21 13  1  0
 22 26  1  0
 23 22  1  0
 24 15  1  0
 25 15  1  0
 26 20  1  0
 27 21  1  0
 28 20  1  0
 29 24  1  0
 30 25  1  0
  6  4  2  0
 12  8  2  0
 16 11  2  0
M  END
>  <ID>  (515) 


>  <MOLENAME>  (515) 
QUINACRINE HYDROCHLORIDE

>  <therap>  (515) 
anthelmintic, antimalarial, intercalating agent

>  <ref>  (515) 
J Pharmacol Exp Ther 81:307 (1944); Am J Psychiatry 102:805 (1946); Life Sci 36:277 (1985)

>  <cas#>  (515) 
6151-30-0, 69-05-6 [anhydrous], 83-89-6 [quinacrine]

>  <source>  (515) 
synthetic; RP-866, SN-390

>  <status>  (515) 
USP-XXII, INN, BAN

>  <tradename>  (515) 
ATABRINE

>  <SMILES>  (515) 
CCN(CC)CCCC(C)Nc1c2cc(OC)ccc2nc2c1ccc(Cl)c2

>  <standardized_failed>  (515) 
False

$$$$

     RDKit          2D

 37 39  0  0  0  0  0  0  0  0999 V2000
    5.4250   -2.3542    0.0000 N   0  0  0  0  0  0  0  0  0  0  0  0
    4.7750   -1.9792    0.0000 C   0  0  0  0  0  0  0  0  0  0  0  0
    8.0625   -4.1917    0.0000 C   0  0  0  0  0  0  0  0  0  0  0  0
    8.6542   -3.8542    0.0000 C   0  0  0  0  0  0  0  0  0  0  0  0
    4.1250   -3.1042    0.0000 C   0  0  0  0  0  0  0  0  0  0  0  0
    4.1250   -2.3542    0.0000 C   0  0  0  0  0  0  0  0  0  0  0  0
    3.4750   -3.4792    0.0000 C   0  0  0  0  0  0  0  0  0  0  0  0
    9.2417   -4.1917    0.0000 C   0  0  0  0  0  0  0  0  0  0  0  0
    4.7750   -1.2167    0.0000 C   0  0  0  0  0  0  0  0  0  0  0  0
    7.4750   -3.8542    0.0000 C   0  0  0  0  0  0  0  0  0  0  0  0
    6.0750   -1.9792    0.0000 C   0  0  0  0  0  0  0  0  0  0  0  0
    5.4250   -0.8417    0.0000 C   0  0  0  0  0  0  0  0  0  0  0  0
    6.0750   -1.2167    0.0000 C   0  0  0  0  0  0  0  0  0  0  0  0
    5.0167   -1.6875    0.0000 C   0  0  0  0  0  0  0  0  0  0  0  0
    3.4750   -4.2292    0.0000 C   0  0  0  0  0  0  0  0  0  0  0  0
    9.8375   -3.8542    0.0000 C   0  0  0  0  0  0  0  0  0  0  0  0
    4.1250   -4.6042    0.0000 N   0  0  0  0  0  0  0  0  0  0  0  0
    2.8167   -3.1042    0.0000 C   0  0  0  0  0  0  0  0  0  0  0  0
    7.4667   -3.1792    0.0000 O   0  0  0  0  0  0  0  0  0  0  0  0
    6.7500   -0.8167    0.0000 C   0  0  0  0  0  0  0  0  0  0  0  0
    5.6750   -1.4667    0.0000 C   0  0  0  0  0  0  0  0  0  0  0  0
    8.0625   -4.8792    0.0000 O   0  0  0  0  0  0  0  0  0  0  0  0
    2.8167   -4.6042    0.0000 C   0  0  0  0  0  0  0  0  0  0  0  0
    8.6500   -3.1667    0.0000 O   0  0  0  0  0  0  0  0  0  0  0  0
    7.3917   -1.2167    0.0000 C   0  0  0  0  0  0  0  0  0  0  0  0
    9.2375   -4.8792    0.0000 O   0  0  0  0  0  0  0  0  0  0  0  0
    3.4625   -2.0042    0.0000 O   0  0  0  0  0  0  0  0  0  0  0  0
    2.1750   -3.4792    0.0000 C   0  0  0  0  0  0  0  0  0  0  0  0
    6.8792   -4.2042    0.0000 O   0  0  0  0  0  0  0  0  0  0  0  0
    4.7792   -4.2292    0.0000 C   0  0  0  0  0  0  0  0  0  0  0  0
    2.1750   -4.2292    0.0000 C   0  0  0  0  0  0  0  0  0  0  0  0
    4.7792   -3.4792    0.0000 C   0  0  0  0  0  0  0  0  0  0  0  0
    9.8292   -3.1667    0.0000 O   0  0  0  0  0  0  0  0  0  0  0  0
    1.5167   -3.1042    0.0000 O   0  0  0  0  0  0  0  0  0  0  0  0
   10.4250   -4.8792    0.0000 O   0  0  0  0  0  0  0  0  0  0  0  0
   10.4250   -4.1917    0.0000 C   0  0  0  0  0  0  0  0  0  0  0  0
    1.5167   -2.3542    0.0000 C   0  0  0  0  0  0  0  0  0  0  0  0
  2  1  1  0
  4  3  1  0
  5  6  1  0
  6  2  1  0
  7  5  1  0
  8  4  1  0
  2  9  1  1
 10  3  1  0
  1 11  1  1
 12 21  1  6
 13 11  1  0
  1 14  1  0
 15  7  2  0
 16  8  1  0
 17 30  2  0
 18  7  1  0
 19 10  2  0
 13 20  1  1
 21 14  1  0
  3 22  1  1
 23 15  1  0
  4 24  1  1
 25 20  2  0
  8 26  1  1
  6 27  1  6
 28 18  2  0
 29 10  1  0
 30 32  1  0
 31 28  1  0
 32  5  2  0
 16 33  1  6
 34 28  1  0
 35 36  1  0
 36 16  1  0
 37 34  1  0
 13 12  1  0
  9 12  1  0
 15 17  1  0
 23 31  2  0
M  END
>  <ID>  (516) 


>  <MOLENAME>  (516) 
QUINIDINE GLUCONATE

>  <therap>  (516) 
antiarrhythmic, antimalarial

>  <ref>  (516) 
J Clin Pharmacol 22:264 (1982); Annals Int Med 103:307 (1985)

>  <cas#>  (516) 
7054-25-3, 6591-63-5 [quinidine sulfate], 56-54-2 [quinidine]

>  <source>  (516) 
Cinchona spp

>  <status>  (516) 
USP

>  <tradename>  (516) 
DURAQUIN

>  <SMILES>  (516) 
C=C[C@H]1C[N@]2CC[C@H]1C[C@@H]2[C@@H](O)c1ccnc2c1cc(OC)cc2

>  <standardized_failed>  (516) 
False

$$$$

     RDKit          2D

 29 31  0  0  0  0  0  0  0  0999 V2000
    8.2667   -3.6250    0.0000 S   0  0  0  0  0  0  0  0  0  0  0  0
    6.4542   -2.7417    0.0000 N   0  0  0  0  0  0  0  0  0  0  0  0
    5.7792   -2.2042    0.0000 C   0  0  0  0  0  0  0  0  0  0  0  0
    5.3667   -3.1750    0.0000 C   0  0  0  0  0  0  0  0  0  0  0  0
    5.3667   -2.5250    0.0000 C   0  0  0  0  0  0  0  0  0  0  0  0
    4.7792   -3.5250    0.0000 C   0  0  0  0  0  0  0  0  0  0  0  0
    5.7667   -1.5000    0.0000 C   0  0  0  0  0  0  0  0  0  0  0  0
    7.2667   -2.1792    0.0000 C   0  0  0  0  0  0  0  0  0  0  0  0
    6.5417   -1.0625    0.0000 C   0  0  0  0  0  0  0  0  0  0  0  0
    7.2875   -1.6042    0.0000 C   0  0  0  0  0  0  0  0  0  0  0  0
    8.9542   -3.6250    0.0000 O   0  0  0  0  0  0  0  0  0  0  0  0
    8.2667   -4.3125    0.0000 O   0  0  0  0  0  0  0  0  0  0  0  0
    6.7292   -1.9042    0.0000 C   0  0  0  0  0  0  0  0  0  0  0  0
    4.7792   -4.1958    0.0000 C   0  0  0  0  0  0  0  0  0  0  0  0
    5.3667   -4.5375    0.0000 N   0  0  0  0  0  0  0  0  0  0  0  0
    4.1667   -3.1750    0.0000 C   0  0  0  0  0  0  0  0  0  0  0  0
    7.8667   -1.2750    0.0000 C   0  0  0  0  0  0  0  0  0  0  0  0
    6.2042   -1.7167    0.0000 C   0  0  0  0  0  0  0  0  0  0  0  0
    7.5792   -3.6250    0.0000 O   0  0  0  0  0  0  0  0  0  0  0  0
    8.2667   -2.9500    0.0000 O   0  0  0  0  0  0  0  0  0  0  0  0
    4.1667   -4.5250    0.0000 C   0  0  0  0  0  0  0  0  0  0  0  0
    8.4292   -1.5375    0.0000 C   0  0  0  0  0  0  0  0  0  0  0  0
    4.7542   -2.2125    0.0000 O   0  0  0  0  0  0  0  0  0  0  0  0
    3.5917   -3.5250    0.0000 C   0  0  0  0  0  0  0  0  0  0  0  0
    5.9667   -4.1958    0.0000 C   0  0  0  0  0  0  0  0  0  0  0  0
    3.5917   -4.1958    0.0000 C   0  0  0  0  0  0  0  0  0  0  0  0
    5.9667   -3.5250    0.0000 C   0  0  0  0  0  0  0  0  0  0  0  0
    2.9917   -3.1875    0.0000 O   0  0  0  0  0  0  0  0  0  0  0  0
    2.9917   -2.5250    0.0000 C   0  0  0  0  0  0  0  0  0  0  0  0
  3  2  1  0
  4  5  1  0
  5  3  1  0
  6  4  1  0
  3  7  1  1
  2  8  1  1
  9 18  1  6
 10  8  1  0
 11  1  2  0
 12  1  2  0
  2 13  1  0
 14  6  2  0
 15 25  2  0
 16  6  1  0
 10 17  1  1
 18 13  1  0
 19  1  1  0
 20  1  1  0
 21 14  1  0
 22 17  2  0
  5 23  1  1
 24 16  2  0
 25 27  1  0
 26 24  1  0
 27  4  2  0
 28 24  1  0
 29 28  1  0
 10  9  1  0
  9  7  1  0
 14 15  1  0
 26 21  2  0
M  END
>  <ID>  (517) 


>  <MOLENAME>  (517) 
QUININE SULFATE

>  <therap>  (517) 
antimalarial, skeletal muscle relaxant

>  <ref>  (517) 
J Infect Dis 169:467 (1994); Angew Chem Int Ed 44:854 (2005)

>  <cas#>  (517) 
6119-70-6, 804-63-7 [anhydrous], 130-95-0 [quinine]

>  <source>  (517) 
Cinchona spp

>  <status>  (517) 
USP, JAN

>  <tradename>  (517) 
QUALAQUIN

>  <SMILES>  (517) 
C=C[C@H]1C[N@]2CC[C@H]1C[C@@H]2[C@H](O)c1ccnc2c1cc(OC)cc2

>  <standardized_failed>  (517) 
False

$$$$

     RDKit          2D

 18 19  0  0  0  0  0  0  0  0999 V2000
    0.2667   -0.0875    0.0000 C   0  0  0  0  0  0  0  0  0  0  0  0
    0.9792    0.3375    0.0000 C   0  0  0  0  0  0  0  0  0  0  0  0
    0.2667    0.7375    0.0000 C   0  0  0  0  0  0  0  0  0  0  0  0
    4.6917   -0.3750    0.0000 C   0  0  0  0  0  0  0  0  0  0  0  0
    5.5167   -0.3750    0.0000 C   0  0  0  0  0  0  0  0  0  0  0  0
    1.8042    0.3375    0.0000 C   0  0  0  0  0  0  0  0  0  0  0  0
    4.2792    0.3375    0.0000 O   0  0  0  0  0  0  0  0  0  0  0  0
    0.6792   -0.8000    0.0000 Cl  0  0  0  0  0  0  0  0  0  0  0  0
   -0.5333   -0.3000    0.0000 Cl  0  0  0  0  0  0  0  0  0  0  0  0
    5.9292    0.3375    0.0000 O   0  0  0  0  0  0  0  0  0  0  0  0
    2.2167   -0.3750    0.0000 C   0  0  0  0  0  0  0  0  0  0  0  0
    2.2167    1.0500    0.0000 C   0  0  0  0  0  0  0  0  0  0  0  0
    3.4542    0.3375    0.0000 C   0  0  0  0  0  0  0  0  0  0  0  0
    5.9292   -1.0917    0.0000 O   0  0  0  0  0  0  0  0  0  0  0  0
    3.0417   -0.3750    0.0000 C   0  0  0  0  0  0  0  0  0  0  0  0
    3.0417    1.0500    0.0000 C   0  0  0  0  0  0  0  0  0  0  0  0
    4.7167   -1.0542    0.0000 C   0  0  0  0  0  0  0  0  0  0  0  0
    3.8917   -0.5875    0.0000 C   0  0  0  0  0  0  0  0  0  0  0  0
  2  1  1  0
  3  1  1  0
  4  7  1  0
  5  4  1  0
  6  2  1  0
  7 13  1  0
  8  1  1  0
  9  1  1  0
 10  5  2  0
 11  6  2  0
 12  6  1  0
 13 16  1  0
 14  5  1  0
 15 11  1  0
 16 12  2  0
 17  4  1  0
 18  4  1  0
  2  3  1  0
 13 15  2  0
M  END
>  <ID>  (518) 


>  <MOLENAME>  (518) 
CIPROFIBRATE

>  <therap>  (518) 
antihyperlipidemic

>  <ref>  (518) 
Angiolology 53:273 (2002); Biochem J 373:941 (2003)

>  <cas#>  (518) 
52214-84-3

>  <source>  (518) 
synthetic; WIN-35833

>  <status>  (518) 
USAN, INN, BAN

>  <tradename>  (518) 
nan

>  <SMILES>  (518) 
CC(C)(Oc1ccc(C2CC2(Cl)Cl)cc1)C(=O)O

>  <standardized_failed>  (518) 
False

$$$$

     RDKit          2D

 44 49  0  0  0  0  0  0  0  0999 V2000
    4.2542   -7.0792    0.0000 C   0  0  0  0  0  0  0  0  0  0  0  0
    3.5417   -7.3042    0.0000 N   0  0  0  0  0  0  0  0  0  0  0  0
    4.2542   -6.3292    0.0000 C   0  0  0  0  0  0  0  0  0  0  0  0
    5.5417   -9.3292    0.0000 C   0  0  0  0  0  0  0  0  0  0  0  0
    5.5417   -8.5792    0.0000 C   0  0  0  0  0  0  0  0  0  0  0  0
    4.8917   -7.4542    0.0000 C   0  0  0  0  0  0  0  0  0  0  0  0
    5.5417   -7.0792    0.0000 N   0  0  0  0  0  0  0  0  0  0  0  0
    3.1042   -6.6917    0.0000 C   0  0  0  0  0  0  0  0  0  0  0  0
    3.5417   -6.1042    0.0000 C   0  0  0  0  0  0  0  0  0  0  0  0
    6.1917   -8.2042    0.0000 C   0  0  0  0  0  0  0  0  0  0  0  0
    6.8417   -9.3292    0.0000 C   0  0  0  0  0  0  0  0  0  0  0  0
    8.1542   -9.3292    0.0000 C   0  0  0  0  0  0  0  0  0  0  0  0
    4.8917   -8.2042    0.0000 C   0  0  0  0  0  0  0  0  0  0  0  0
    6.1917   -9.7042    0.0000 C   0  0  0  0  0  0  0  0  0  0  0  0
    8.7792   -9.7292    0.0000 C   0  0  0  0  0  0  0  0  0  0  0  0
   10.0417  -10.5292    0.0000 C   0  0  0  0  0  0  0  0  0  0  0  0
    4.8917   -9.7167    0.0000 C   0  0  0  0  0  0  0  0  0  0  0  0
    7.5042   -9.7042    0.0000 O   0  0  0  0  0  0  0  0  0  0  0  0
    6.1917   -7.4542    0.0000 C   0  0  0  0  0  0  0  0  0  0  0  0
    9.3792  -10.8792    0.0000 C   0  0  0  0  0  0  0  0  0  0  0  0
   10.0792   -9.7792    0.0000 C   0  0  0  0  0  0  0  0  0  0  0  0
    6.8417   -8.5792    0.0000 C   0  0  0  0  0  0  0  0  0  0  0  0
    4.8917   -5.9542    0.0000 C   0  0  0  0  0  0  0  0  0  0  0  0
    8.7542  -10.4792    0.0000 C   0  0  0  0  0  0  0  0  0  0  0  0
    9.4417   -9.3792    0.0000 C   0  0  0  0  0  0  0  0  0  0  0  0
    2.3542   -6.6167    0.0000 C   0  0  0  0  0  0  0  0  0  0  0  0
    3.2292   -5.4167    0.0000 C   0  0  0  0  0  0  0  0  0  0  0  0
    5.5417   -6.3292    0.0000 C   0  0  0  0  0  0  0  0  0  0  0  0
    8.2167   -8.5417    0.0000 O   0  0  0  0  0  0  0  0  0  0  0  0
    4.2417   -9.3417    0.0000 O   0  0  0  0  0  0  0  0  0  0  0  0
    2.0417   -5.9292    0.0000 C   0  0  0  0  0  0  0  0  0  0  0  0
   10.6792  -10.9292    0.0000 O   0  0  0  0  0  0  0  0  0  0  0  0
    2.4917   -5.3292    0.0000 C   0  0  0  0  0  0  0  0  0  0  0  0
    6.1792  -10.4542    0.0000 O   0  0  0  0  0  0  0  0  0  0  0  0
    4.8917  -10.4667    0.0000 O   0  0  0  0  0  0  0  0  0  0  0  0
   10.7417   -9.4417    0.0000 O   0  0  0  0  0  0  0  0  0  0  0  0
    9.3542  -11.6292    0.0000 O   0  0  0  0  0  0  0  0  0  0  0  0
    1.2917   -5.8542    0.0000 O   0  0  0  0  0  0  0  0  0  0  0  0
   10.6417  -11.6792    0.0000 C   0  0  0  0  0  0  0  0  0  0  0  0
    6.8292  -10.8292    0.0000 C   0  0  0  0  0  0  0  0  0  0  0  0
   11.3792   -9.8417    0.0000 C   0  0  0  0  0  0  0  0  0  0  0  0
    5.5417  -10.8417    0.0000 C   0  0  0  0  0  0  0  0  0  0  0  0
    8.6792  -11.9792    0.0000 C   0  0  0  0  0  0  0  0  0  0  0  0
    0.9917   -5.1667    0.0000 C   0  0  0  0  0  0  0  0  0  0  0  0
  2  1  1  0
  3  1  2  0
  5  4  1  0
  5 13  1  1
  6  1  1  0
  6  7  1  0
  8  2  1  0
  9  3  1  0
 10  5  1  0
 11 22  1  0
 12 18  1  0
  6 13  1  6
 14  4  1  0
 15 12  1  0
 16 21  2  0
  4 17  1  1
 11 18  1  1
 19  7  1  0
 20 24  2  0
 21 25  1  0
 10 22  1  1
 23  3  1  0
 24 15  1  0
 25 15  2  0
 26  8  2  0
 27  9  2  0
 28  7  1  0
 29 12  2  0
 30 17  2  0
 31 26  1  0
 32 16  1  0
 33 27  1  0
 14 34  1  6
 35 17  1  0
 36 21  1  0
 37 20  1  0
 38 31  1  0
 39 32  1  0
 40 34  1  0
 41 36  1  0
 42 35  1  0
 43 37  1  0
 44 38  1  0
  8  9  1  0
 23 28  1  0
 10 19  1  0
 31 33  2  0
 11 14  1  0
 16 20  1  0
M  END
>  <ID>  (519) 


>  <MOLENAME>  (519) 
RESERPINE

>  <therap>  (519) 
antihypertensive

>  <ref>  (519) 
Anal Profiles Drug Subs 4:384 (1975); Toxicol Pathol 8:1 (1980)

>  <cas#>  (519) 
50-55-5

>  <source>  (519) 
Rauwolfia serpentina

>  <status>  (519) 
USP, INN, BAN, JAN

>  <tradename>  (519) 
SERPASIL

>  <SMILES>  (519) 
COC(=O)[C@H]1[C@H]2C[C@@H]3c4c(CCN3C[C@H]2C[C@@H](OC(=O)c2cc(OC)c(OC)c(OC)c2)[C@@H]1OC)c1ccc(OC)cc1[nH]4

>  <standardized_failed>  (519) 
False

$$$$

     RDKit          2D

 17 18  0  0  0  0  0  0  0  0999 V2000
    0.8875   -1.7417    0.0000 S   0  0  0  0  0  0  0  0  0  0  0  0
   -1.9708   -1.7375    0.0000 S   0  0  0  0  0  0  0  0  0  0  0  0
    0.1708   -1.3292    0.0000 C   0  0  0  0  0  0  0  0  0  0  0  0
   -1.2542   -1.3250    0.0000 C   0  0  0  0  0  0  0  0  0  0  0  0
   -0.5417   -1.7375    0.0000 C   0  0  0  0  0  0  0  0  0  0  0  0
    0.1750   -0.4958    0.0000 C   0  0  0  0  0  0  0  0  0  0  0  0
   -1.2542   -0.5000    0.0000 C   0  0  0  0  0  0  0  0  0  0  0  0
   -0.5417   -0.0833    0.0000 C   0  0  0  0  0  0  0  0  0  0  0  0
    0.3000   -2.3250    0.0000 O   0  0  0  0  0  0  0  0  0  0  0  0
    1.4667   -2.3250    0.0000 O   0  0  0  0  0  0  0  0  0  0  0  0
   -2.5583   -2.3167    0.0000 O   0  0  0  0  0  0  0  0  0  0  0  0
   -1.3875   -2.3167    0.0000 O   0  0  0  0  0  0  0  0  0  0  0  0
   -2.6833   -1.3250    0.0000 N   0  0  0  0  0  0  0  0  0  0  0  0
    1.6125   -1.3292    0.0000 C   0  0  0  0  0  0  0  0  0  0  0  0
    0.8917   -0.0750    0.0000 C   0  0  0  0  0  0  0  0  0  0  0  0
   -1.9667   -0.0875    0.0000 C   0  0  0  0  0  0  0  0  0  0  0  0
    1.6125   -0.4958    0.0000 C   0  0  0  0  0  0  0  0  0  0  0  0
  2  4  1  0
  3  1  1  0
  4  5  2  0
  5  3  1  0
  6  3  2  0
  7  4  1  0
  8  6  1  0
  9  1  2  0
 10  1  2  0
 11  2  2  0
 12  2  2  0
 13  2  1  0
 14  1  1  0
 15 17  1  0
 16  7  1  0
 17 14  1  0
 15  6  1  0
  7  8  2  0
M  END
>  <ID>  (520) 


>  <MOLENAME>  (520) 
METICRANE

>  <therap>  (520) 
diuretic, antihypertensive

>  <ref>  (520) 
Ann. Pharm. Fr(1970), 28(7-8), 497-509. ; Therapie (1967), 22(1), 137-47. ; Therapie (1965), 20(5), 1305-10.

>  <cas#>  (520) 
1084-65-7

>  <source>  (520) 
synthetic; SD-17102

>  <status>  (520) 
INN, JAN

>  <tradename>  (520) 
nan

>  <SMILES>  (520) 
Cc1cc2c(cc1S(N)(=O)=O)S(=O)(=O)CCC2

>  <standardized_failed>  (520) 
False

$$$$

     RDKit          2D

 59 63  0  0  0  0  0  0  0  0999 V2000
    5.0792   -5.0292    0.0000 C   0  0  0  0  0  0  0  0  0  0  0  0
    7.1167   -3.8542    0.0000 C   0  0  0  0  0  0  0  0  0  0  0  0
    7.1167   -4.6417    0.0000 C   0  0  0  0  0  0  0  0  0  0  0  0
    4.4042   -4.6417    0.0000 C   0  0  0  0  0  0  0  0  0  0  0  0
    5.7542   -3.8542    0.0000 C   0  0  0  0  0  0  0  0  0  0  0  0
    5.7542   -4.6417    0.0000 C   0  0  0  0  0  0  0  0  0  0  0  0
    4.0792   -5.8042    0.0000 C   0  0  0  0  0  0  0  0  0  0  0  0
    7.7000   -3.5542    0.0000 N   0  0  0  0  0  0  0  0  0  0  0  0
    3.6417   -4.9917    0.0000 O   0  0  0  0  0  0  0  0  0  0  0  0
    6.4417   -3.4667    0.0000 C   0  0  0  0  0  0  0  0  0  0  0  0
    6.4417   -5.0292    0.0000 C   0  0  0  0  0  0  0  0  0  0  0  0
    5.0792   -3.4667    0.0000 C   0  0  0  0  0  0  0  0  0  0  0  0
    5.0792   -5.8042    0.0000 C   0  0  0  0  0  0  0  0  0  0  0  0
    4.4042   -3.8542    0.0000 C   0  0  0  0  0  0  0  0  0  0  0  0
    1.5167   -3.5167    0.0000 C   0  0  0  0  0  0  0  0  0  0  0  0
    7.7000   -2.5542    0.0000 C   0  0  0  0  0  0  0  0  0  0  0  0
    1.5167   -2.7542    0.0000 C   0  0  0  0  0  0  0  0  0  0  0  0
    2.1667   -1.6292    0.0000 C   0  0  0  0  0  0  0  0  0  0  0  0
    2.1667   -2.3792    0.0000 C   0  0  0  0  0  0  0  0  0  0  0  0
    7.7667   -5.0167    0.0000 C   0  0  0  0  0  0  0  0  0  0  0  0
    2.1667   -3.8917    0.0000 C   0  0  0  0  0  0  0  0  0  0  0  0
    9.5125   -5.0292    0.0000 N   0  0  0  0  0  0  0  0  0  0  0  0
    2.8167   -1.2542    0.0000 C   0  0  0  0  0  0  0  0  0  0  0  0
    8.5125   -5.0292    0.0000 N   0  0  0  0  0  0  0  0  0  0  0  0
    7.3542   -1.7417    0.0000 C   0  0  0  0  0  0  0  0  0  0  0  0
    3.5292   -6.1167    0.0000 O   0  0  0  0  0  0  0  0  0  0  0  0
    0.8667   -3.8917    0.0000 O   0  0  0  0  0  0  0  0  0  0  0  0
   10.9167   -5.0542    0.0000 N   0  0  0  0  0  0  0  0  0  0  0  0
    2.8167   -5.7792    0.0000 C   0  0  0  0  0  0  0  0  0  0  0  0
    0.2167   -3.5167    0.0000 C   0  0  0  0  0  0  0  0  0  0  0  0
    2.8167   -5.0167    0.0000 C   0  0  0  0  0  0  0  0  0  0  0  0
    2.1667   -4.6417    0.0000 C   0  0  0  0  0  0  0  0  0  0  0  0
    5.5417   -1.7792    0.0000 C   0  0  0  0  0  0  0  0  0  0  0  0
    5.6167   -6.3417    0.0000 O   0  0  0  0  0  0  0  0  0  0  0  0
    6.4792   -1.3042    0.0000 C   0  0  0  0  0  0  0  0  0  0  0  0
    8.3250   -2.2417    0.0000 O   0  0  0  0  0  0  0  0  0  0  0  0
    9.9125   -5.6917    0.0000 C   0  0  0  0  0  0  0  0  0  0  0  0
    9.9042   -4.3792    0.0000 C   0  0  0  0  0  0  0  0  0  0  0  0
    3.8625   -1.6792    0.0000 C   0  0  0  0  0  0  0  0  0  0  0  0
    4.6417   -1.2792    0.0000 C   0  0  0  0  0  0  0  0  0  0  0  0
   -0.4333   -3.8917    0.0000 O   0  0  0  0  0  0  0  0  0  0  0  0
    6.4167   -2.9292    0.0000 O   0  0  0  0  0  0  0  0  0  0  0  0
    6.4542   -5.6167    0.0000 O   0  0  0  0  0  0  0  0  0  0  0  0
    5.0167   -2.9042    0.0000 O   0  0  0  0  0  0  0  0  0  0  0  0
   10.6792   -5.6792    0.0000 C   0  0  0  0  0  0  0  0  0  0  0  0
   10.6542   -4.3792    0.0000 C   0  0  0  0  0  0  0  0  0  0  0  0
    2.8167   -2.7542    0.0000 O   0  0  0  0  0  0  0  0  0  0  0  0
    2.8167   -0.6292    0.0000 O   0  0  0  0  0  0  0  0  0  0  0  0
    4.0792   -6.5917    0.0000 C   0  0  0  0  0  0  0  0  0  0  0  0
    3.7667   -3.4917    0.0000 C   0  0  0  0  0  0  0  0  0  0  0  0
    0.8667   -2.3792    0.0000 C   0  0  0  0  0  0  0  0  0  0  0  0
    1.5167   -1.2542    0.0000 C   0  0  0  0  0  0  0  0  0  0  0  0
    1.5167   -5.0167    0.0000 O   0  0  0  0  0  0  0  0  0  0  0  0
    2.8167   -3.5167    0.0000 C   0  0  0  0  0  0  0  0  0  0  0  0
   11.5417   -5.0542    0.0000 C   0  0  0  0  0  0  0  0  0  0  0  0
    7.8875   -1.2167    0.0000 C   0  0  0  0  0  0  0  0  0  0  0  0
    0.2167   -2.7667    0.0000 C   0  0  0  0  0  0  0  0  0  0  0  0
    3.8625   -2.2417    0.0000 C   0  0  0  0  0  0  0  0  0  0  0  0
    0.8667   -4.6417    0.0000 C   0  0  0  0  0  0  0  0  0  0  0  0
  2  3  1  0
  3 11  2  0
  4  1  2  0
  5  6  2  0
  6  1  1  0
  7 13  1  0
  8  2  1  0
  9  4  1  0
 10  5  1  0
 11  6  1  0
 12  5  1  0
 13  1  1  0
 14  4  1  0
 15 21  1  0
 16  8  1  0
 17 15  1  0
 18 19  1  0
 19 17  1  0
 20  3  1  0
 21 32  1  0
 22 24  1  0
 23 18  1  0
 24 20  2  3
 25 16  1  0
 26  7  1  0
 15 27  1  6
 28 46  1  0
 29 26  1  0
 30 27  1  0
 31 29  2  0
 32 31  1  0
 33 35  1  0
 34 13  2  0
 35 25  2  0
 36 16  2  0
 37 22  1  0
 38 22  1  0
 39 40  1  0
 40 33  2  0
 41 30  2  0
 42 10  1  0
 43 11  1  0
 44 12  1  0
 45 37  1  0
 46 38  1  0
 19 47  1  1
 23 48  1  1
  7 49  1  6
 50 14  1  0
 17 51  1  6
 18 52  1  6
 32 53  1  6
 21 54  1  6
 55 28  1  0
 56 25  1  0
 57 30  1  0
 58 39  1  0
 59 53  1  0
 12 14  2  0
  7  9  1  0
 10  2  2  0
 28 45  1  0
 23 39  1  0
M  END
>  <ID>  (521) 


>  <MOLENAME>  (521) 
RIFAMPIN

>  <therap>  (521) 
antibacterial (tuberculostatic)

>  <ref>  (521) 
Arzneim Forsch 17:523, 526, 534 (1967); 21:1907 (1971)

>  <cas#>  (521) 
13292-46-1

>  <source>  (521) 
semisynthetic; L-5103, Ba-41166/E, NSC-113926

>  <status>  (521) 
USP, INN, BAN, JAN

>  <tradename>  (521) 
RIFADIN

>  <SMILES>  (521) 
CO[C@H]1/C=C/O[C@@]2(C)Oc3c(C2=O)c2c(c(O)c3C)c(O)c(NC(=O)/C(C)=C\C=C\C(C)[C@H](O)[C@@H](C)[C@@H](O)[C@@H](C)[C@@H](OC(C)=O)[C@@H]1C)c(C=NN1CCN(C)CC1)c2O

>  <standardized_failed>  (521) 
False

$$$$

     RDKit          2D

 62 63  0  0  0  0  0  0  0  0999 V2000
    8.0917   -6.5167    0.0000 C   0  0  0  0  0  0  0  0  0  0  0  0
    4.1583   -6.4917    0.0000 C   0  0  0  0  0  0  0  0  0  0  0  0
    8.8083   -5.2750    0.0000 C   0  0  0  0  0  0  0  0  0  0  0  0
    2.7292   -6.4917    0.0000 C   0  0  0  0  0  0  0  0  0  0  0  0
    9.5208   -6.5167    0.0000 C   0  0  0  0  0  0  0  0  0  0  0  0
    3.4417   -5.2500    0.0000 C   0  0  0  0  0  0  0  0  0  0  0  0
    3.4417   -6.9042    0.0000 C   0  0  0  0  0  0  0  0  0  0  0  0
    8.8083   -6.9292    0.0000 C   0  0  0  0  0  0  0  0  0  0  0  0
    4.1583   -5.6625    0.0000 C   0  0  0  0  0  0  0  0  0  0  0  0
    8.0917   -5.6875    0.0000 C   0  0  0  0  0  0  0  0  0  0  0  0
    7.3750   -6.9292    0.0000 N   0  0  0  0  0  0  0  0  0  0  0  0
    4.8750   -6.9042    0.0000 N   0  0  0  0  0  0  0  0  0  0  0  0
    9.5208   -5.6875    0.0000 C   0  0  0  0  0  0  0  0  0  0  0  0
    2.7292   -5.6625    0.0000 C   0  0  0  0  0  0  0  0  0  0  0  0
    8.8125   -4.4500    0.0000 C   0  0  0  0  0  0  0  0  0  0  0  0
    3.4375   -4.4250    0.0000 C   0  0  0  0  0  0  0  0  0  0  0  0
    2.0167   -6.9000    0.0000 C   0  0  0  0  0  0  0  0  0  0  0  0
   10.2375   -6.9250    0.0000 C   0  0  0  0  0  0  0  0  0  0  0  0
    7.3750   -7.7542    0.0000 C   0  0  0  0  0  0  0  0  0  0  0  0
    4.8750   -7.7292    0.0000 C   0  0  0  0  0  0  0  0  0  0  0  0
    6.5875   -6.6167    0.0000 C   0  0  0  0  0  0  0  0  0  0  0  0
    5.5583   -6.6167    0.0000 C   0  0  0  0  0  0  0  0  0  0  0  0
    1.3042   -6.4875    0.0000 N   0  0  0  0  0  0  0  0  0  0  0  0
   10.9500   -6.5125    0.0000 N   0  0  0  0  0  0  0  0  0  0  0  0
    2.7250   -4.0083    0.0000 N   0  0  0  0  0  0  0  0  0  0  0  0
    9.5292   -4.0375    0.0000 N   0  0  0  0  0  0  0  0  0  0  0  0
    6.0250   -5.8667    0.0000 C   0  0  0  0  0  0  0  0  0  0  0  0
    8.0958   -4.0375    0.0000 O   0  0  0  0  0  0  0  0  0  0  0  0
    4.1542   -4.0125    0.0000 O   0  0  0  0  0  0  0  0  0  0  0  0
    2.0125   -7.7250    0.0000 O   0  0  0  0  0  0  0  0  0  0  0  0
   10.2375   -7.7500    0.0000 O   0  0  0  0  0  0  0  0  0  0  0  0
    5.5917   -8.1375    0.0000 O   0  0  0  0  0  0  0  0  0  0  0  0
    6.6583   -8.1625    0.0000 O   0  0  0  0  0  0  0  0  0  0  0  0
    2.0167   -5.2542    0.0000 I   0  0  0  0  0  0  0  0  0  0  0  0
    4.8708   -5.2458    0.0000 I   0  0  0  0  0  0  0  0  0  0  0  0
    3.4417   -7.7292    0.0000 I   0  0  0  0  0  0  0  0  0  0  0  0
    7.3792   -5.2708    0.0000 I   0  0  0  0  0  0  0  0  0  0  0  0
    8.8083   -7.7542    0.0000 I   0  0  0  0  0  0  0  0  0  0  0  0
   10.2333   -5.2792    0.0000 I   0  0  0  0  0  0  0  0  0  0  0  0
   10.2417   -4.4458    0.0000 C   0  0  0  0  0  0  0  0  0  0  0  0
    0.5917   -6.8917    0.0000 C   0  0  0  0  0  0  0  0  0  0  0  0
    2.0083   -4.4250    0.0000 C   0  0  0  0  0  0  0  0  0  0  0  0
   11.6625   -6.9167    0.0000 C   0  0  0  0  0  0  0  0  0  0  0  0
    1.3000   -4.0083    0.0000 C   0  0  0  0  0  0  0  0  0  0  0  0
   -0.1208   -6.4792    0.0000 C   0  0  0  0  0  0  0  0  0  0  0  0
   10.9542   -4.0375    0.0000 C   0  0  0  0  0  0  0  0  0  0  0  0
   12.3750   -6.5042    0.0000 C   0  0  0  0  0  0  0  0  0  0  0  0
    6.0542   -5.0250    0.0000 O   0  0  0  0  0  0  0  0  0  0  0  0
   10.9542   -3.2125    0.0000 O   0  0  0  0  0  0  0  0  0  0  0  0
   -0.1208   -5.6542    0.0000 O   0  0  0  0  0  0  0  0  0  0  0  0
   12.3708   -5.6792    0.0000 O   0  0  0  0  0  0  0  0  0  0  0  0
    1.3000   -3.1875    0.0000 O   0  0  0  0  0  0  0  0  0  0  0  0
    8.0875   -8.1667    0.0000 C   0  0  0  0  0  0  0  0  0  0  0  0
    4.1625   -8.1417    0.0000 C   0  0  0  0  0  0  0  0  0  0  0  0
   12.3792   -4.0375    0.0000 O   0  0  0  0  0  0  0  0  0  0  0  0
   -1.5500   -6.4750    0.0000 O   0  0  0  0  0  0  0  0  0  0  0  0
   13.8000   -6.5000    0.0000 O   0  0  0  0  0  0  0  0  0  0  0  0
   -0.1250   -4.0083    0.0000 O   0  0  0  0  0  0  0  0  0  0  0  0
   -0.8333   -6.8917    0.0000 C   0  0  0  0  0  0  0  0  0  0  0  0
    0.5875   -4.4250    0.0000 C   0  0  0  0  0  0  0  0  0  0  0  0
   13.0875   -6.9167    0.0000 C   0  0  0  0  0  0  0  0  0  0  0  0
   11.6667   -4.4458    0.0000 C   0  0  0  0  0  0  0  0  0  0  0  0
  2 12  1  0
  3 10  2  0
  4  7  2  0
  5  8  1  0
  6  9  1  0
  7  2  1  0
  8  1  2  0
  9  2  2  0
 10  1  1  0
 11  1  1  0
 12 22  1  0
 13  3  1  0
 14  6  2  0
 15  3  1  0
 16  6  1  0
 17  4  1  0
 18  5  1  0
 19 11  1  0
 20 12  1  0
 21 11  1  0
 22 27  1  0
 23 17  1  0
 24 18  1  0
 25 16  1  0
 26 15  1  0
 27 21  1  0
 28 15  2  0
 29 16  2  0
 30 17  2  0
 31 18  2  0
 32 20  2  0
 33 19  2  0
 34 14  1  0
 35  9  1  0
 36  7  1  0
 37 10  1  0
 38  8  1  0
 39 13  1  0
 40 26  1  0
 41 23  1  0
 42 25  1  0
 43 24  1  0
 44 42  1  0
 45 41  1  0
 46 40  1  0
 47 43  1  0
 48 27  1  0
 49 46  1  0
 50 45  1  0
 51 47  1  0
 52 44  1  0
 53 19  1  0
 54 20  1  0
 55 62  1  0
 56 59  1  0
 57 61  1  0
 58 60  1  0
 59 45  1  0
 60 44  1  0
 61 47  1  0
 62 46  1  0
  5 13  2  0
  4 14  1  0
M  END
>  <ID>  (522) 


>  <MOLENAME>  (522) 
IODIXANOL

>  <therap>  (522) 
radiopaque agent

>  <ref>  (522) 
Drugs (1996), 52(6), 899-927; Invest. Radiol. (1990), 25 Suppl 1S113-4; Br. J. Radiol. (1986), 59(706), 987-91

>  <cas#>  (522) 
92339-11-2

>  <source>  (522) 
synthetic; 2-5410-3A

>  <status>  (522) 
USP, INN, BAN

>  <tradename>  (522) 
VISIPAQUE

>  <SMILES>  (522) 
CC(=O)N(CC(O)CN(C(C)=O)c1c(I)c(C(=O)NCC(O)CO)c(I)c(C(=O)NCC(O)CO)c1I)c1c(I)c(C(=O)NCC(O)CO)c(I)c(C(=O)NCC(O)CO)c1I

>  <standardized_failed>  (522) 
False

$$$$

     RDKit          2D

  9  9  0  0  0  0  0  0  0  0999 V2000
    1.1375    1.6000    0.0000 C   0  0  0  0  0  0  0  0  0  0  0  0
    1.7917    1.2208    0.0000 C   0  0  0  0  0  0  0  0  0  0  0  0
    2.4417    1.5958    0.0000 O   0  0  0  0  0  0  0  0  0  0  0  0
    1.1375    2.3500    0.0000 C   0  0  0  0  0  0  0  0  0  0  0  0
    1.7875    2.7333    0.0000 O   0  0  0  0  0  0  0  0  0  0  0  0
    0.4917    1.2208    0.0000 C   0  0  0  0  0  0  0  0  0  0  0  0
    1.7917    0.4708    0.0000 C   0  0  0  0  0  0  0  0  0  0  0  0
    0.4917    0.4708    0.0000 C   0  0  0  0  0  0  0  0  0  0  0  0
    1.1375    0.0958    0.0000 C   0  0  0  0  0  0  0  0  0  0  0  0
  2  1  2  0
  3  2  1  0
  4  1  1  0
  5  4  1  0
  6  1  1  0
  7  2  1  0
  8  6  2  0
  9  8  1  0
  9  7  2  0
M  END
>  <ID>  (523) 


>  <MOLENAME>  (523) 
SALICYL ALCOHOL

>  <therap>  (523) 
anesthetic (local), antiinflammatory

>  <ref>  (523) 
J Med Chem 13:957 (1970); Chem Pharm Bull 40:2191 (1992)

>  <cas#>  (523) 
90-01-7

>  <source>  (523) 
Populus sieboldii

>  <status>  (523) 
USAN

>  <tradename>  (523) 
SALICAIN

>  <SMILES>  (523) 
OCc1c(O)cccc1

>  <standardized_failed>  (523) 
False

$$$$

     RDKit          2D

 10 10  0  0  0  0  0  0  0  0999 V2000
    2.7750   -2.0292    0.0000 C   0  0  0  0  0  0  0  0  0  0  0  0
    2.7750   -1.2792    0.0000 C   0  0  0  0  0  0  0  0  0  0  0  0
    3.4292   -2.4042    0.0000 C   0  0  0  0  0  0  0  0  0  0  0  0
    3.4250   -0.9000    0.0000 O   0  0  0  0  0  0  0  0  0  0  0  0
    2.1250   -0.9042    0.0000 N   0  0  0  0  0  0  0  0  0  0  0  0
    4.0792   -2.0292    0.0000 O   0  0  0  0  0  0  0  0  0  0  0  0
    2.1292   -2.4042    0.0000 C   0  0  0  0  0  0  0  0  0  0  0  0
    3.4292   -3.1625    0.0000 C   0  0  0  0  0  0  0  0  0  0  0  0
    2.1292   -3.1625    0.0000 C   0  0  0  0  0  0  0  0  0  0  0  0
    2.7750   -3.5375    0.0000 C   0  0  0  0  0  0  0  0  0  0  0  0
  2  1  1  0
  3  1  2  0
  4  2  2  0
  5  2  1  0
  6  3  1  0
  7  1  1  0
  8  3  1  0
  9  7  2  0
 10  9  1  0
 10  8  2  0
M  END
>  <ID>  (524) 


>  <MOLENAME>  (524) 
SALICYLAMIDE

>  <therap>  (524) 
analgesic

>  <ref>  (524) 
J Pharmacol Exp Ther 89:205 (1947); J Clin Pharmacol J New Drugs 7:150 (1967)

>  <cas#>  (524) 
65-45-2

>  <source>  (524) 
synthetic

>  <status>  (524) 
USP, INN, BAN, JAN

>  <tradename>  (524) 
URTOSAL

>  <SMILES>  (524) 
NC(=O)c1c(O)cccc1

>  <standardized_failed>  (524) 
False

$$$$

     RDKit          2D

 11 10  0  0  0  0  0  0  0  0999 V2000
    4.5500   -3.4125    0.0000 C   0  0  0  0  0  0  0  0  0  0  0  0
    4.5500   -2.6625    0.0000 C   0  0  0  0  0  0  0  0  0  0  0  0
    5.2000   -3.7917    0.0000 C   0  0  0  0  0  0  0  0  0  0  0  0
    5.2000   -2.2792    0.0000 O   0  0  0  0  0  0  0  0  0  0  0  0
    3.9000   -2.2875    0.0000 O   0  0  0  0  0  0  0  0  0  0  0  0
    5.8500   -3.4167    0.0000 O   0  0  0  0  0  0  0  0  0  0  0  0
    3.9000   -3.7917    0.0000 C   0  0  0  0  0  0  0  0  0  0  0  0
    6.2667   -2.4667    0.0000 Na  0  0  0  0  0 15  0  0  0  0  0  0
    5.2000   -4.5417    0.0000 C   0  0  0  0  0  0  0  0  0  0  0  0
    3.9000   -4.5417    0.0000 C   0  0  0  0  0  0  0  0  0  0  0  0
    4.5500   -4.9167    0.0000 C   0  0  0  0  0  0  0  0  0  0  0  0
  2  1  1  0
  3  1  2  0
  4  2  1  0
  5  2  2  0
  6  3  1  0
  7  1  1  0
  9  3  1  0
 10  7  2  0
 11 10  1  0
 11  9  2  0
M  CHG  2   4  -1   8   1
M  END
>  <ID>  (525) 


>  <MOLENAME>  (525) 
SODIUM SALICYLATE

>  <therap>  (525) 
keratolytic

>  <ref>  (525) 
Toxicol Appl Pharmacol 18:185 (1971); Brit J Clin Pharmacol 27:607 (1989); 

>  <cas#>  (525) 
54-21-7

>  <source>  (525) 
synthetic

>  <status>  (525) 
USP, JAN

>  <tradename>  (525) 
IDOCYL

>  <SMILES>  (525) 
O=C([O-])c1c(O)cccc1.[Na+]

>  <standardized_failed>  (525) 
False

$$$$

     RDKit          2D

 36 37  0  0  0  0  0  0  0  0999 V2000
    9.9625   -8.8375    0.0000 S   0  0  0  0  0  0  0  0  0  0  0  0
    6.9500   -8.8417    0.0000 C   0  0  0  0  0  0  0  0  0  0  0  0
    5.8250   -8.2042    0.0000 C   0  0  0  0  0  0  0  0  0  0  0  0
    6.2000   -8.8417    0.0000 C   0  0  0  0  0  0  0  0  0  0  0  0
    8.1167  -10.7792    0.0000 C   0  0  0  0  0  0  0  0  0  0  0  0
    7.4000  -10.3667    0.0000 C   0  0  0  0  0  0  0  0  0  0  0  0
    8.1125  -11.6042    0.0000 C   0  0  0  0  0  0  0  0  0  0  0  0
    7.3917   -9.5417    0.0000 O   0  0  0  0  0  0  0  0  0  0  0  0
    5.0750   -8.2042    0.0000 O   0  0  0  0  0  0  0  0  0  0  0  0
    4.2375   -8.2000    0.0000 C   0  0  0  0  0  0  0  0  0  0  0  0
    7.4042  -12.0167    0.0000 C   0  0  0  0  0  0  0  0  0  0  0  0
    3.8125   -8.9125    0.0000 O   0  0  0  0  0  0  0  0  0  0  0  0
    6.2000   -7.5542    0.0000 C   0  0  0  0  0  0  0  0  0  0  0  0
    7.3250   -8.2042    0.0000 C   0  0  0  0  0  0  0  0  0  0  0  0
    6.6917  -10.7792    0.0000 O   0  0  0  0  0  0  0  0  0  0  0  0
    6.9500   -7.5542    0.0000 C   0  0  0  0  0  0  0  0  0  0  0  0
    2.9917   -8.9042    0.0000 C   0  0  0  0  0  0  0  0  0  0  0  0
    9.9542   -8.1417    0.0000 O   0  0  0  0  0  0  0  0  0  0  0  0
    9.9542   -9.5250    0.0000 O   0  0  0  0  0  0  0  0  0  0  0  0
    6.6875  -11.6042    0.0000 C   0  0  0  0  0  0  0  0  0  0  0  0
    2.5792   -8.1792    0.0000 C   0  0  0  0  0  0  0  0  0  0  0  0
    3.8292   -7.4792    0.0000 C   0  0  0  0  0  0  0  0  0  0  0  0
    9.2750   -8.8292    0.0000 O   0  0  0  0  0  0  0  0  0  0  0  0
   10.6417   -8.8375    0.0000 O   0  0  0  0  0  0  0  0  0  0  0  0
    3.0042   -7.4667    0.0000 C   0  0  0  0  0  0  0  0  0  0  0  0
    8.8292  -12.0167    0.0000 N   0  0  0  0  0  0  0  0  0  0  0  0
    8.8292  -10.3667    0.0000 O   0  0  0  0  0  0  0  0  0  0  0  0
    5.8167   -9.5042    0.0000 O   0  0  0  0  0  0  0  0  0  0  0  0
    5.8167   -6.8917    0.0000 N   0  0  0  0  0  0  0  0  0  0  0  0
    8.0750   -8.2042    0.0000 N   0  0  0  0  0  0  0  0  0  0  0  0
    6.9917  -12.7292    0.0000 O   0  0  0  0  0  0  0  0  0  0  0  0
    4.2542   -6.7667    0.0000 N   0  0  0  0  0  0  0  0  0  0  0  0
    1.7417   -9.6042    0.0000 N   0  0  0  0  0  0  0  0  0  0  0  0
    8.1167  -12.4292    0.0000 C   0  0  0  0  0  0  0  0  0  0  0  0
    2.5667   -9.6125    0.0000 C   0  0  0  0  0  0  0  0  0  0  0  0
    8.8292  -12.8417    0.0000 C   0  0  0  0  0  0  0  0  0  0  0  0
  3  4  1  0
  4  2  1  0
  5  6  1  0
  6  8  1  6
  7  5  1  0
  2  8  1  6
  3  9  1  6
 10  9  1  1
 11 20  1  0
 12 10  1  0
 13 16  1  0
 14  2  1  0
 15  6  1  0
 16 14  1  0
 17 12  1  0
 18  1  2  0
 19  1  2  0
 20 15  1  0
 21 25  1  0
 22 10  1  0
 23  1  1  0
 24  1  1  0
 25 22  1  0
  7 26  1  1
 27  5  1  0
  4 28  1  1
 13 29  1  1
 14 30  1  1
 31 11  1  0
 22 32  1  1
 33 35  1  0
 11 34  1  6
 35 17  1  0
 36 26  1  0
 13  3  1  0
 11  7  1  0
 21 17  2  0
M  END
>  <ID>  (526) 


>  <MOLENAME>  (526) 
SISOMICIN SULFATE

>  <therap>  (526) 
antibacterial, binds to ribosomes

>  <ref>  (526) 
J Antibiot 23:551, 559 (1970); Drugs 27:548 (1984)

>  <cas#>  (526) 
53179-09-2, 32385-11-8 [sisomicin]

>  <source>  (526) 
Micromonospora myoensis; SCH-13475

>  <status>  (526) 
USP, BAN, JAN

>  <tradename>  (526) 
SISEPTIN

>  <SMILES>  (526) 
CN[C@@H]1C(O)[C@@H](O[C@@H]2[C@@H](O)[C@H](O[C@H]3OC(CN)=CC[C@H]3N)[C@@H](N)C[C@H]2N)OC[C@]1(C)O

>  <standardized_failed>  (526) 
False

$$$$

     RDKit          2D

 25 25  0  0  0  0  0  0  0  0999 V2000
    6.9042   -5.1167    0.0000 C   0  0  0  0  0  0  0  0  0  0  0  0
    5.4750   -5.1167    0.0000 C   0  0  0  0  0  0  0  0  0  0  0  0
    5.4750   -4.2917    0.0000 C   0  0  0  0  0  0  0  0  0  0  0  0
    6.9042   -4.2917    0.0000 C   0  0  0  0  0  0  0  0  0  0  0  0
    6.1917   -5.5292    0.0000 O   0  0  0  0  0  0  0  0  0  0  0  0
    6.1917   -3.8792    0.0000 O   0  0  0  0  0  0  0  0  0  0  0  0
    4.7625   -5.5292    0.0000 C   0  0  0  0  0  0  0  0  0  0  0  0
    4.7625   -3.8792    0.0000 C   0  0  0  0  0  0  0  0  0  0  0  0
    4.0417   -4.2917    0.0000 C   0  0  0  0  0  0  0  0  0  0  0  0
    4.0417   -5.1167    0.0000 C   0  0  0  0  0  0  0  0  0  0  0  0
    7.6167   -5.5292    0.0000 C   0  0  0  0  0  0  0  0  0  0  0  0
    7.6167   -3.8792    0.0000 O   0  0  0  0  0  0  0  0  0  0  0  0
    8.3292   -5.1167    0.0000 C   0  0  0  0  0  0  0  0  0  0  0  0
    8.3292   -4.2917    0.0000 C   0  0  0  0  0  0  0  0  0  0  0  0
    6.9042   -5.9417    0.0000 O   0  0  0  0  0  0  0  0  0  0  0  0
    7.6167   -6.3542    0.0000 O   0  0  0  0  0  0  0  0  0  0  0  0
    4.7625   -6.3542    0.0000 N   0  0  0  0  0  0  0  0  0  0  0  0
    3.3250   -3.8667    0.0000 N   0  0  0  0  0  0  0  0  0  0  0  0
    4.7625   -3.0542    0.0000 O   0  0  0  0  0  0  0  0  0  0  0  0
    3.3250   -5.5292    0.0000 O   0  0  0  0  0  0  0  0  0  0  0  0
    5.4250   -6.8417    0.0000 Cl  0  0  0  0  0  0  0  0  0  0  0  0
    2.4292   -4.4917    0.0000 Cl  0  0  0  0  0  0  0  0  0  0  0  0
    9.0542   -3.8667    0.0000 C   0  0  0  0  0  0  0  0  0  0  0  0
    3.3292   -3.0417    0.0000 C   0  0  0  0  0  0  0  0  0  0  0  0
    4.0500   -6.7667    0.0000 C   0  0  0  0  0  0  0  0  0  0  0  0
  2  5  1  6
  3  2  1  0
  4  1  1  0
  5  1  1  0
  4  6  1  6
  2  7  1  0
  3  8  1  0
  9 10  1  0
 10  7  1  0
 11  1  1  0
  4 12  1  0
 13 11  1  0
 14 13  1  0
  1 15  1  1
 16 11  2  0
  7 17  1  1
  9 18  1  1
  8 19  1  6
 10 20  1  1
 14 23  1  6
 24 18  1  0
 25 17  1  0
  3  6  1  1
 12 14  1  0
  8  9  1  0
M  END
>  <ID>  (527) 


>  <MOLENAME>  (527) 
SPECTINOMYCIN HYDROCHLORIDE

>  <therap>  (527) 
antibacterial

>  <ref>  (527) 
Ann Intern Med 84:712 (1976); Med Clin North Am 66:169 (1982)

>  <cas#>  (527) 
22189-32-8, 21736-83-4 [anhydrous], 1695-77-8 [spectinomycin]

>  <source>  (527) 
Streptomyces spectabilis; CHX-3101; M-141, U-18409AE

>  <status>  (527) 
USP, INN, BAN, JAN

>  <tradename>  (527) 
TROBICIN

>  <SMILES>  (527) 
CN[C@H]1[C@@H](O)[C@@H](NC)[C@H](O)[C@H]2O[C@@H]3O[C@H](C)CC(=O)[C@]3(O)O[C@H]12

>  <standardized_failed>  (527) 
False

$$$$

     RDKit          2D

 29 33  0  0  0  0  0  0  0  0999 V2000
    4.8500   -4.1625    0.0000 C   0  0  0  0  0  0  0  0  0  0  0  0
    4.8500   -4.9917    0.0000 C   0  0  0  0  0  0  0  0  0  0  0  0
    6.9917   -2.9167    0.0000 C   0  0  0  0  0  0  0  0  0  0  0  0
    5.5625   -3.7500    0.0000 C   0  0  0  0  0  0  0  0  0  0  0  0
    6.9917   -3.7500    0.0000 C   0  0  0  0  0  0  0  0  0  0  0  0
    7.7792   -2.6667    0.0000 C   0  0  0  0  0  0  0  0  0  0  0  0
    6.2792   -4.1625    0.0000 C   0  0  0  0  0  0  0  0  0  0  0  0
    6.2792   -4.9917    0.0000 C   0  0  0  0  0  0  0  0  0  0  0  0
    8.7292   -2.7417    0.0000 O   0  0  0  0  0  0  0  0  0  0  0  0
    4.1375   -5.4042    0.0000 C   0  0  0  0  0  0  0  0  0  0  0  0
    5.5625   -5.4042    0.0000 C   0  0  0  0  0  0  0  0  0  0  0  0
    7.0000   -5.4125    0.0000 S   0  0  0  0  0  0  0  0  0  0  0  0
    6.2750   -2.5042    0.0000 C   0  0  0  0  0  0  0  0  0  0  0  0
    5.5625   -2.9167    0.0000 C   0  0  0  0  0  0  0  0  0  0  0  0
    9.0167   -2.0042    0.0000 C   0  0  0  0  0  0  0  0  0  0  0  0
    7.7792   -4.0042    0.0000 C   0  0  0  0  0  0  0  0  0  0  0  0
    4.1375   -3.7500    0.0000 C   0  0  0  0  0  0  0  0  0  0  0  0
    6.9917   -6.2417    0.0000 C   0  0  0  0  0  0  0  0  0  0  0  0
    8.2625   -3.3292    0.0000 C   0  0  0  0  0  0  0  0  0  0  0  0
    3.4167   -4.9917    0.0000 C   0  0  0  0  0  0  0  0  0  0  0  0
    7.7792   -1.8417    0.0000 C   0  0  0  0  0  0  0  0  0  0  0  0
    9.8417   -2.0000    0.0000 O   0  0  0  0  0  0  0  0  0  0  0  0
    7.7125   -6.6542    0.0000 O   0  0  0  0  0  0  0  0  0  0  0  0
    2.7000   -5.4125    0.0000 O   0  0  0  0  0  0  0  0  0  0  0  0
    8.4167   -1.4667    0.0000 C   0  0  0  0  0  0  0  0  0  0  0  0
    3.4167   -4.1625    0.0000 C   0  0  0  0  0  0  0  0  0  0  0  0
    4.8500   -3.3292    0.0000 C   0  0  0  0  0  0  0  0  0  0  0  0
    6.9792   -2.0917    0.0000 C   0  0  0  0  0  0  0  0  0  0  0  0
    6.2792   -6.6542    0.0000 C   0  0  0  0  0  0  0  0  0  0  0  0
  2  1  1  0
  3 13  1  0
  4  1  1  0
  5  7  1  0
  6  3  1  0
  7  4  1  0
  8  7  1  0
  6  9  1  0
 10  2  2  0
 11  2  1  0
  8 12  1  6
 13 14  1  0
  4 14  1  1
 15  9  1  0
  5 16  1  1
 17  1  1  0
 18 12  1  0
 19 16  1  0
 20 26  1  0
  6 21  1  6
 22 15  2  0
 23 18  2  0
 24 20  2  0
 25 21  1  0
 26 17  1  0
  1 27  1  1
  3 28  1  1
 29 18  1  0
  8 11  1  0
 20 10  1  0
  5  3  1  0
  6 19  1  0
 15 25  1  0
M  END
>  <ID>  (528) 


>  <MOLENAME>  (528) 
SPIRONOLACTONE

>  <therap>  (528) 
diuretic, aldosterone antagonist

>  <ref>  (528) 
Clin Endocrinol Metab 15:363 (1986); Clin Ther 8:568 (1986); N Engl J Med 341 (709 (1999)

>  <cas#>  (528) 
52-01-7

>  <source>  (528) 
synthetic; SC-9420

>  <status>  (528) 
USP, INN, BAN, JAN

>  <tradename>  (528) 
ALDACTONE

>  <SMILES>  (528) 
CC(=O)S[C@@H]1CC2=CC(=O)CC[C@]2(C)[C@H]2CC[C@@]3(C)[C@@H](CC[C@@]34CCC(=O)O4)C21

>  <standardized_failed>  (528) 
False

$$$$

     RDKit          2D

 45 46  0  0  0  0  0  0  0  0999 V2000
    5.4375  -11.2250    0.0000 C   0  0  0  0  0  0  0  0  0  0  0  0
    7.0000   -9.4500    0.0000 C   0  0  0  0  0  0  0  0  0  0  0  0
    4.6542  -10.9542    0.0000 C   0  0  0  0  0  0  0  0  0  0  0  0
    6.4167   -8.8625    0.0000 C   0  0  0  0  0  0  0  0  0  0  0  0
    7.4292   -7.8542    0.0000 C   0  0  0  0  0  0  0  0  0  0  0  0
    5.9292  -10.5542    0.0000 C   0  0  0  0  0  0  0  0  0  0  0  0
    4.9792  -12.5750    0.0000 C   0  0  0  0  0  0  0  0  0  0  0  0
    6.6292   -8.0792    0.0000 C   0  0  0  0  0  0  0  0  0  0  0  0
    5.1375  -13.3792    0.0000 C   0  0  0  0  0  0  0  0  0  0  0  0
    9.5667  -11.8167    0.0000 S   0  0  0  0  0  0  0  0  0  0  0  0
    7.7917   -9.2375    0.0000 C   0  0  0  0  0  0  0  0  0  0  0  0
    8.0125   -8.4417    0.0000 C   0  0  0  0  0  0  0  0  0  0  0  0
    4.5167  -13.9292    0.0000 C   0  0  0  0  0  0  0  0  0  0  0  0
    5.6000  -12.0292    0.0000 O   0  0  0  0  0  0  0  0  0  0  0  0
    6.7917  -10.2542    0.0000 O   0  0  0  0  0  0  0  0  0  0  0  0
    4.1917  -12.3125    0.0000 O   0  0  0  0  0  0  0  0  0  0  0  0
    5.4542   -9.8917    0.0000 O   0  0  0  0  0  0  0  0  0  0  0  0
    3.7375  -13.6667    0.0000 C   0  0  0  0  0  0  0  0  0  0  0  0
    3.5750  -12.8542    0.0000 C   0  0  0  0  0  0  0  0  0  0  0  0
    4.6667  -10.1250    0.0000 C   0  0  0  0  0  0  0  0  0  0  0  0
    5.6125   -9.0542    0.0000 N   0  0  0  0  0  0  0  0  0  0  0  0
    7.6542   -7.0542    0.0000 N   0  0  0  0  0  0  0  0  0  0  0  0
    8.4542   -6.8417    0.0000 C   0  0  0  0  0  0  0  0  0  0  0  0
    5.0500   -8.4542    0.0000 C   0  0  0  0  0  0  0  0  0  0  0  0
    9.5625  -12.5042    0.0000 O   0  0  0  0  0  0  0  0  0  0  0  0
    9.5625  -11.1250    0.0000 O   0  0  0  0  0  0  0  0  0  0  0  0
    8.6667   -6.0625    0.0000 N   0  0  0  0  0  0  0  0  0  0  0  0
    5.2875   -7.6667    0.0000 N   0  0  0  0  0  0  0  0  0  0  0  0
    3.8500  -11.0792    0.0000 C   0  0  0  0  0  0  0  0  0  0  0  0
    5.9292  -13.6500    0.0000 N   0  0  0  0  0  0  0  0  0  0  0  0
    4.3625  -11.7292    0.0000 O   0  0  0  0  0  0  0  0  0  0  0  0
   10.2500  -11.8167    0.0000 O   0  0  0  0  0  0  0  0  0  0  0  0
    8.8792  -11.8125    0.0000 O   0  0  0  0  0  0  0  0  0  0  0  0
    6.0375   -7.5125    0.0000 O   0  0  0  0  0  0  0  0  0  0  0  0
    3.3292  -10.4375    0.0000 O   0  0  0  0  0  0  0  0  0  0  0  0
    8.3667   -9.8125    0.0000 O   0  0  0  0  0  0  0  0  0  0  0  0
    8.8125   -8.2250    0.0000 O   0  0  0  0  0  0  0  0  0  0  0  0
    4.6750  -14.7500    0.0000 O   0  0  0  0  0  0  0  0  0  0  0  0
    9.0375   -7.4292    0.0000 N   0  0  0  0  0  0  0  0  0  0  0  0
    4.2500   -8.6417    0.0000 N   0  0  0  0  0  0  0  0  0  0  0  0
    3.1167  -14.2125    0.0000 O   0  0  0  0  0  0  0  0  0  0  0  0
    2.7792  -12.5917    0.0000 C   0  0  0  0  0  0  0  0  0  0  0  0
    2.1625  -13.1417    0.0000 O   0  0  0  0  0  0  0  0  0  0  0  0
    4.0125   -9.6167    0.0000 C   0  0  0  0  0  0  0  0  0  0  0  0
    6.0917  -14.4625    0.0000 C   0  0  0  0  0  0  0  0  0  0  0  0
  2 15  1  6
  3  1  1  0
  4  2  1  0
  5  8  1  0
  6  1  1  0
  7 14  1  1
  8  4  1  0
  9  7  1  0
 11  2  1  0
 12 11  1  0
 13  9  1  0
 14  1  1  0
  6 15  1  1
 16  7  1  0
 17  6  1  0
 18 19  1  0
 19 16  1  0
 20  3  1  0
  4 21  1  1
  5 22  1  1
 23 22  1  0
 24 21  1  0
 25 10  2  0
 26 10  2  0
 27 23  2  0
 28 24  2  0
  3 29  1  0
  9 30  1  1
  3 31  1  6
 32 10  1  0
 33 10  1  0
  8 34  1  6
 35 29  2  0
 11 36  1  1
 12 37  1  6
 13 38  1  6
 39 23  1  0
 40 24  1  0
 18 41  1  1
 19 42  1  6
 43 42  1  0
 20 44  1  6
 45 30  1  0
 20 17  1  0
 13 18  1  0
 12  5  1  0
M  END
>  <ID>  (529) 


>  <MOLENAME>  (529) 
STREPTOMYCIN SULFATE

>  <therap>  (529) 
antibacterial (tuberculostatic)

>  <ref>  (529) 
Adv Carbohydr Chem 3:337 (1948); Anal Profiles Drug Subs 16:507 (1986)

>  <cas#>  (529) 
3810-74-0, 57-92-1 [streptomycin]

>  <source>  (529) 
Streptomyces griseus

>  <status>  (529) 
USP, INN, BAN, JAN

>  <tradename>  (529) 
AGRI-STREP

>  <SMILES>  (529) 
CN[C@@H]1[C@H](OC2[C@H](O[C@@H]3[C@@H](NC(=N)N)[C@H](O)[C@@H](NC(=N)N)[C@H](O)[C@H]3O)O[C@@H](C)[C@]2(O)C=O)O[C@@H](CO)[C@H](O)[C@H]1O

>  <standardized_failed>  (529) 
False

$$$$

     RDKit          2D

 18 18  0  0  0  0  0  0  0  0999 V2000
    5.4917  -10.8792    0.0000 C   0  0  0  0  0  0  0  0  0  0  0  0
    6.4375  -12.2417    0.0000 C   0  0  0  0  0  0  0  0  0  0  0  0
    5.9167  -11.6000    0.0000 N   0  0  0  0  0  0  0  0  0  0  0  0
    4.6625  -10.8792    0.0000 C   0  0  0  0  0  0  0  0  0  0  0  0
    5.9042  -10.1667    0.0000 C   0  0  0  0  0  0  0  0  0  0  0  0
    5.4917   -9.4500    0.0000 O   0  0  0  0  0  0  0  0  0  0  0  0
    4.2500  -10.1667    0.0000 C   0  0  0  0  0  0  0  0  0  0  0  0
    7.3792  -12.2167    0.0000 N   0  0  0  0  0  0  0  0  0  0  0  0
    4.6625   -9.4500    0.0000 C   0  0  0  0  0  0  0  0  0  0  0  0
    7.9500  -11.5250    0.0000 N   0  0  0  0  0  0  0  0  0  0  0  0
    6.0792  -12.8042    0.0000 O   0  0  0  0  0  0  0  0  0  0  0  0
    8.4500  -10.9625    0.0000 O   0  0  0  0  0  0  0  0  0  0  0  0
    4.2375  -11.6000    0.0000 O   0  0  0  0  0  0  0  0  0  0  0  0
    3.4250  -10.1667    0.0000 O   0  0  0  0  0  0  0  0  0  0  0  0
    6.7292  -10.1667    0.0000 O   0  0  0  0  0  0  0  0  0  0  0  0
    4.2417   -8.7292    0.0000 C   0  0  0  0  0  0  0  0  0  0  0  0
    7.5042  -13.0292    0.0000 C   0  0  0  0  0  0  0  0  0  0  0  0
    4.6542   -8.0042    0.0000 O   0  0  0  0  0  0  0  0  0  0  0  0
  2  3  1  0
  1  3  1  6
  4  1  1  0
  5  1  1  0
  6  5  1  0
  7  4  1  0
  8  2  1  0
  9  6  1  0
 10  8  1  0
 11  2  2  0
 12 10  2  0
  4 13  1  1
  7 14  1  6
  5 15  1  6
  9 16  1  1
 17  8  1  0
 18 16  1  0
  7  9  1  0
M  END
>  <ID>  (530) 


>  <MOLENAME>  (530) 
STREPTOZOSIN

>  <therap>  (530) 
antineoplastic, alkylating agent

>  <ref>  (530) 
Eur J Clin Pharmacol 7:89 (1969); Arzneim Forsch 22:830 (1972)

>  <cas#>  (530) 
18883-66-4

>  <source>  (530) 
synthetic; U-9889

>  <status>  (530) 
USAN, INN

>  <tradename>  (530) 
ZANOSAR

>  <SMILES>  (530) 
CN(N=O)C(=O)N[C@H]1[C@@H](O)O[C@H](CO)[C@@H](O)[C@@H]1O

>  <standardized_failed>  (530) 
False

$$$$

     RDKit          2D

 19 20  0  0  0  0  0  0  0  0999 V2000
    1.7917   -0.0917    0.0000 S   0  0  0  0  0  0  0  0  0  0  0  0
    2.5417   -0.0917    0.0000 N   0  0  0  0  0  0  0  0  0  0  0  0
    2.9167   -0.7417    0.0000 C   0  0  0  0  0  0  0  0  0  0  0  0
    1.0417   -0.0917    0.0000 C   0  0  0  0  0  0  0  0  0  0  0  0
    1.7917    0.6500    0.0000 O   0  0  0  0  0  0  0  0  0  0  0  0
    1.7917   -0.8500    0.0000 O   0  0  0  0  0  0  0  0  0  0  0  0
    3.6667   -0.7417    0.0000 O   0  0  0  0  0  0  0  0  0  0  0  0
    2.5417   -1.3917    0.0000 C   0  0  0  0  0  0  0  0  0  0  0  0
    0.6667   -0.7500    0.0000 C   0  0  0  0  0  0  0  0  0  0  0  0
    0.6667    0.5458    0.0000 C   0  0  0  0  0  0  0  0  0  0  0  0
   -0.4583   -0.0917    0.0000 C   0  0  0  0  0  0  0  0  0  0  0  0
   -1.2083   -0.0917    0.0000 N   0  0  0  0  0  0  0  0  0  0  0  0
   -0.0833   -0.7500    0.0000 C   0  0  0  0  0  0  0  0  0  0  0  0
   -0.0833    0.5458    0.0000 C   0  0  0  0  0  0  0  0  0  0  0  0
    1.7917   -1.3917    0.0000 C   0  0  0  0  0  0  0  0  0  0  0  0
    2.9167   -2.0417    0.0000 C   0  0  0  0  0  0  0  0  0  0  0  0
    2.5417   -2.6917    0.0000 C   0  0  0  0  0  0  0  0  0  0  0  0
    1.4167   -2.0417    0.0000 C   0  0  0  0  0  0  0  0  0  0  0  0
    1.7917   -2.6917    0.0000 C   0  0  0  0  0  0  0  0  0  0  0  0
  2  1  1  0
  3  2  1  0
  4  1  1  0
  5  1  2  0
  6  1  2  0
  7  3  2  0
  8  3  1  0
  9  4  2  0
 10  4  1  0
 11 14  1  0
 12 11  1  0
 13  9  1  0
 14 10  2  0
 15  8  2  0
 16  8  1  0
 17 16  2  0
 18 15  1  0
 19 17  1  0
 13 11  2  0
 19 18  2  0
M  END
>  <ID>  (531) 


>  <MOLENAME>  (531) 
SULFABENZAMIDE

>  <therap>  (531) 
antibacterial

>  <ref>  (531) 
JACS 65:2126 (1943)

>  <cas#>  (531) 
127-71-9

>  <source>  (531) 
synthetic

>  <status>  (531) 
USP, INN, BAN

>  <tradename>  (531) 
SULFABENZIDE

>  <SMILES>  (531) 
Nc1ccc(S(=O)(=O)NC(=O)c2ccccc2)cc1

>  <standardized_failed>  (531) 
False

$$$$

     RDKit          2D

 14 14  0  0  0  0  0  0  0  0999 V2000
    4.1167   -2.4167    0.0000 S   0  0  0  0  0  0  0  0  0  0  0  0
    4.8667   -2.4167    0.0000 N   0  0  0  0  0  0  0  0  0  0  0  0
    3.3667   -2.4167    0.0000 C   0  0  0  0  0  0  0  0  0  0  0  0
    5.2417   -1.7750    0.0000 C   0  0  0  0  0  0  0  0  0  0  0  0
    4.1167   -3.1667    0.0000 O   0  0  0  0  0  0  0  0  0  0  0  0
    4.1167   -1.6667    0.0000 O   0  0  0  0  0  0  0  0  0  0  0  0
    5.9917   -1.7750    0.0000 O   0  0  0  0  0  0  0  0  0  0  0  0
    2.9917   -3.0667    0.0000 C   0  0  0  0  0  0  0  0  0  0  0  0
    2.9917   -1.7667    0.0000 C   0  0  0  0  0  0  0  0  0  0  0  0
    1.8667   -2.4167    0.0000 C   0  0  0  0  0  0  0  0  0  0  0  0
    1.1167   -2.4167    0.0000 N   0  0  0  0  0  0  0  0  0  0  0  0
    2.2417   -1.7667    0.0000 C   0  0  0  0  0  0  0  0  0  0  0  0
    2.2417   -3.0667    0.0000 C   0  0  0  0  0  0  0  0  0  0  0  0
    4.8667   -1.1292    0.0000 C   0  0  0  0  0  0  0  0  0  0  0  0
  2  1  1  0
  3  1  1  0
  4  2  1  0
  5  1  2  0
  6  1  2  0
  7  4  2  0
  8  3  2  0
  9  3  1  0
 10 12  1  0
 11 10  1  0
 12  9  2  0
 13  8  1  0
 14  4  1  0
 13 10  2  0
M  END
>  <ID>  (532) 


>  <MOLENAME>  (532) 
SULFACETAMIDE

>  <therap>  (532) 
antibacterial

>  <ref>  (532) 
Int J Dermatol 32:365 (1993); Anal Profiles Drug Subs Excip 23:471 (1994)

>  <cas#>  (532) 
144-80-9, 127-56-0 [anhydrous], 6209-17-2 [sulfacetamide sodium]

>  <source>  (532) 
synthetic

>  <status>  (532) 
USP, INN, BAN

>  <tradename>  (532) 
ALBUCID

>  <SMILES>  (532) 
CC(=O)NS(=O)(=O)c1ccc(N)cc1

>  <standardized_failed>  (532) 
False

$$$$

     RDKit          2D

 17 18  0  0  0  0  0  0  0  0999 V2000
    0.5167    0.0750    0.0000 S   0  0  0  0  0  0  0  0  0  0  0  0
    1.6792    0.0750    0.0000 N   0  0  0  0  0  0  0  0  0  0  0  0
    2.0542   -0.5667    0.0000 C   0  0  0  0  0  0  0  0  0  0  0  0
   -0.2333    0.0708    0.0000 C   0  0  0  0  0  0  0  0  0  0  0  0
    0.9000   -0.5750    0.0000 O   0  0  0  0  0  0  0  0  0  0  0  0
    0.8917    0.7250    0.0000 O   0  0  0  0  0  0  0  0  0  0  0  0
    1.6792   -1.2167    0.0000 N   0  0  0  0  0  0  0  0  0  0  0  0
    2.8042   -0.5667    0.0000 N   0  0  0  0  0  0  0  0  0  0  0  0
   -0.6083    0.7250    0.0000 C   0  0  0  0  0  0  0  0  0  0  0  0
   -0.6000   -0.5792    0.0000 C   0  0  0  0  0  0  0  0  0  0  0  0
   -1.7333    0.0625    0.0000 C   0  0  0  0  0  0  0  0  0  0  0  0
   -2.4833    0.0583    0.0000 N   0  0  0  0  0  0  0  0  0  0  0  0
   -1.3583   -0.5875    0.0000 C   0  0  0  0  0  0  0  0  0  0  0  0
   -1.3583    0.7208    0.0000 C   0  0  0  0  0  0  0  0  0  0  0  0
    2.8042   -1.8667    0.0000 C   0  0  0  0  0  0  0  0  0  0  0  0
    3.1792   -1.2167    0.0000 C   0  0  0  0  0  0  0  0  0  0  0  0
    2.0542   -1.8667    0.0000 C   0  0  0  0  0  0  0  0  0  0  0  0
  2  1  1  0
  3  2  1  0
  4  1  1  0
  5  1  2  0
  6  1  2  0
  7  3  2  0
  8  3  1  0
  9  4  2  0
 10  4  1  0
 11 13  1  0
 12 11  1  0
 13 10  2  0
 14  9  1  0
 15 16  1  0
 16  8  2  0
 17  7  1  0
 11 14  2  0
 15 17  2  0
M  END
>  <ID>  (533) 


>  <MOLENAME>  (533) 
SULFADIAZINE

>  <therap>  (533) 
antibacterial

>  <ref>  (533) 
Chemotherapy 14:195 (1969); Anal Profiles Drug Subs 11:523 (1982)

>  <cas#>  (533) 
68-35-9

>  <source>  (533) 
synthetic

>  <status>  (533) 
USP, INN, BAN, JAN

>  <tradename>  (533) 
ADIAZINE

>  <SMILES>  (533) 
Nc1ccc(S(=O)(=O)Nc2ncccn2)cc1

>  <standardized_failed>  (533) 
False

$$$$

     RDKit          2D

 18 19  0  0  0  0  0  0  0  0999 V2000
    3.7417   -1.5667    0.0000 S   0  0  0  0  0  0  0  0  0  0  0  0
    4.9042   -1.5667    0.0000 N   0  0  0  0  0  0  0  0  0  0  0  0
    5.2792   -2.2167    0.0000 C   0  0  0  0  0  0  0  0  0  0  0  0
    4.9042   -2.8667    0.0000 N   0  0  0  0  0  0  0  0  0  0  0  0
    2.9917   -1.5750    0.0000 C   0  0  0  0  0  0  0  0  0  0  0  0
    4.1167   -0.9167    0.0000 O   0  0  0  0  0  0  0  0  0  0  0  0
    4.1250   -2.2167    0.0000 O   0  0  0  0  0  0  0  0  0  0  0  0
    6.0292   -2.2167    0.0000 N   0  0  0  0  0  0  0  0  0  0  0  0
    2.6167   -0.9167    0.0000 C   0  0  0  0  0  0  0  0  0  0  0  0
    2.6250   -2.2292    0.0000 C   0  0  0  0  0  0  0  0  0  0  0  0
    5.2792   -3.5167    0.0000 C   0  0  0  0  0  0  0  0  0  0  0  0
    6.4042   -2.8625    0.0000 C   0  0  0  0  0  0  0  0  0  0  0  0
    1.4917   -1.5792    0.0000 C   0  0  0  0  0  0  0  0  0  0  0  0
    0.7417   -1.5875    0.0000 N   0  0  0  0  0  0  0  0  0  0  0  0
    6.0292   -3.5125    0.0000 C   0  0  0  0  0  0  0  0  0  0  0  0
    1.8667   -0.9292    0.0000 C   0  0  0  0  0  0  0  0  0  0  0  0
    1.8667   -2.2292    0.0000 C   0  0  0  0  0  0  0  0  0  0  0  0
    4.9042   -4.1667    0.0000 C   0  0  0  0  0  0  0  0  0  0  0  0
  2  1  1  0
  3  2  1  0
  4  3  2  0
  5  1  1  0
  6  1  2  0
  7  1  2  0
  8  3  1  0
  9  5  2  0
 10  5  1  0
 11  4  1  0
 12  8  2  0
 13 17  1  0
 14 13  1  0
 15 12  1  0
 16  9  1  0
 17 10  2  0
 18 11  1  0
 13 16  2  0
 15 11  2  0
M  END
>  <ID>  (534) 


>  <MOLENAME>  (534) 
SULFAMERAZINE

>  <therap>  (534) 
antibacterial

>  <ref>  (534) 
Vet Med (Prague) 13:619 (1968); Anal Profiles Drug Subs 6:515 (1977)

>  <cas#>  (534) 
127-79-7

>  <source>  (534) 
synthetic; RP-2632

>  <status>  (534) 
USP-XXIII, INN, BAN

>  <tradename>  (534) 
MESULFA

>  <SMILES>  (534) 
Cc1ccnc(NS(=O)(=O)c2ccc(N)cc2)n1

>  <standardized_failed>  (534) 
False

$$$$

     RDKit          2D

 19 20  0  0  0  0  0  0  0  0999 V2000
    3.7417   -1.1125    0.0000 S   0  0  0  0  0  0  0  0  0  0  0  0
    4.9042   -1.1125    0.0000 N   0  0  0  0  0  0  0  0  0  0  0  0
    5.2792   -1.7542    0.0000 C   0  0  0  0  0  0  0  0  0  0  0  0
    4.9042   -2.4042    0.0000 N   0  0  0  0  0  0  0  0  0  0  0  0
    6.0292   -1.7542    0.0000 N   0  0  0  0  0  0  0  0  0  0  0  0
    2.9917   -1.1167    0.0000 C   0  0  0  0  0  0  0  0  0  0  0  0
    4.1250   -1.7625    0.0000 O   0  0  0  0  0  0  0  0  0  0  0  0
    4.1167   -0.4625    0.0000 O   0  0  0  0  0  0  0  0  0  0  0  0
    6.4042   -2.4042    0.0000 C   0  0  0  0  0  0  0  0  0  0  0  0
    5.2792   -3.0542    0.0000 C   0  0  0  0  0  0  0  0  0  0  0  0
    6.0292   -3.0542    0.0000 C   0  0  0  0  0  0  0  0  0  0  0  0
    2.6250   -1.7667    0.0000 C   0  0  0  0  0  0  0  0  0  0  0  0
    2.6167   -0.4625    0.0000 C   0  0  0  0  0  0  0  0  0  0  0  0
    1.4917   -1.1250    0.0000 C   0  0  0  0  0  0  0  0  0  0  0  0
    0.7417   -1.1292    0.0000 N   0  0  0  0  0  0  0  0  0  0  0  0
    1.8667   -0.4667    0.0000 C   0  0  0  0  0  0  0  0  0  0  0  0
    1.8667   -1.7750    0.0000 C   0  0  0  0  0  0  0  0  0  0  0  0
    4.9042   -3.7042    0.0000 C   0  0  0  0  0  0  0  0  0  0  0  0
    7.1542   -2.4042    0.0000 C   0  0  0  0  0  0  0  0  0  0  0  0
  2  1  1  0
  3  2  1  0
  4  3  2  0
  5  3  1  0
  6  1  1  0
  7  1  2  0
  8  1  2  0
  9  5  2  0
 10  4  1  0
 11  9  1  0
 12  6  2  0
 13  6  1  0
 14 16  1  0
 15 14  1  0
 16 13  2  0
 17 12  1  0
 18 10  1  0
 19  9  1  0
 17 14  2  0
 11 10  2  0
M  END
>  <ID>  (535) 


>  <MOLENAME>  (535) 
SULFAMETHAZINE

>  <therap>  (535) 
antibacterial

>  <ref>  (535) 
Arch Immunol Ther Exp 16:804 (1968); Anal Profiles Drug Subs 7:401 (1978)

>  <cas#>  (535) 
57-68-1

>  <source>  (535) 
synthetic

>  <status>  (535) 
USP, INN, BAN

>  <tradename>  (535) 
SULFASURE

>  <SMILES>  (535) 
Cc1cc(C)nc(NS(=O)(=O)c2ccc(N)cc2)n1

>  <standardized_failed>  (535) 
False

$$$$

     RDKit          2D

 17 18  0  0  0  0  0  0  0  0999 V2000
    4.5875   -1.8917    0.0000 S   0  0  0  0  0  0  0  0  0  0  0  0
    3.9417   -3.0167    0.0000 C   0  0  0  0  0  0  0  0  0  0  0  0
    4.5875   -2.6417    0.0000 N   0  0  0  0  0  0  0  0  0  0  0  0
    3.2917   -2.6417    0.0000 S   0  0  0  0  0  0  0  0  0  0  0  0
    3.7875   -3.7542    0.0000 N   0  0  0  0  0  0  0  0  0  0  0  0
    3.0375   -3.8292    0.0000 N   0  0  0  0  0  0  0  0  0  0  0  0
    2.7292   -3.1417    0.0000 C   0  0  0  0  0  0  0  0  0  0  0  0
    4.0042   -1.6000    0.0000 C   0  0  0  0  0  0  0  0  0  0  0  0
    5.0667   -2.0667    0.0000 O   0  0  0  0  0  0  0  0  0  0  0  0
    5.1292   -1.3500    0.0000 O   0  0  0  0  0  0  0  0  0  0  0  0
    4.0042   -0.8542    0.0000 C   0  0  0  0  0  0  0  0  0  0  0  0
    3.3500   -1.9750    0.0000 C   0  0  0  0  0  0  0  0  0  0  0  0
    2.7042   -0.8417    0.0000 C   0  0  0  0  0  0  0  0  0  0  0  0
    2.0542   -0.4667    0.0000 N   0  0  0  0  0  0  0  0  0  0  0  0
    2.7042   -1.5917    0.0000 C   0  0  0  0  0  0  0  0  0  0  0  0
    3.3542   -0.4750    0.0000 C   0  0  0  0  0  0  0  0  0  0  0  0
    1.9917   -2.9917    0.0000 C   0  0  0  0  0  0  0  0  0  0  0  0
  2  3  1  0
  3  1  1  0
  4  2  1  0
  5  2  2  0
  6  5  1  0
  7  4  1  0
  8  1  1  0
  9  1  2  0
 10  1  2  0
 11  8  2  0
 12  8  1  0
 13 15  1  0
 14 13  1  0
 15 12  2  0
 16 11  1  0
 17  7  1  0
 13 16  2  0
  6  7  2  0
M  END
>  <ID>  (536) 


>  <MOLENAME>  (536) 
SULFAMETHIZOLE

>  <therap>  (536) 
antibacterial

>  <ref>  (536) 
N Engl J Med 268:36, 92 (1963); J Antimicrob Chemother 52:837 (2003)

>  <cas#>  (536) 
144-82-1

>  <source>  (536) 
synthetic

>  <status>  (536) 
USP, INN, BAN, JAN

>  <tradename>  (536) 
THIOSULFIL

>  <SMILES>  (536) 
Cc1nnc(NS(=O)(=O)c2ccc(N)cc2)s1

>  <standardized_failed>  (536) 
False

$$$$

     RDKit          2D

 17 18  0  0  0  0  0  0  0  0999 V2000
    2.6167   -1.8042    0.0000 S   0  0  0  0  0  0  0  0  0  0  0  0
    3.3167   -1.7750    0.0000 N   0  0  0  0  0  0  0  0  0  0  0  0
    3.9292   -1.3292    0.0000 C   0  0  0  0  0  0  0  0  0  0  0  0
    4.6417   -1.5542    0.0000 N   0  0  0  0  0  0  0  0  0  0  0  0
    3.9292   -0.5792    0.0000 C   0  0  0  0  0  0  0  0  0  0  0  0
    5.0792   -0.9417    0.0000 O   0  0  0  0  0  0  0  0  0  0  0  0
    1.8667   -1.8042    0.0000 C   0  0  0  0  0  0  0  0  0  0  0  0
    4.6417   -0.3500    0.0000 C   0  0  0  0  0  0  0  0  0  0  0  0
    2.6125   -2.2750    0.0000 O   0  0  0  0  0  0  0  0  0  0  0  0
    2.6125   -1.1500    0.0000 O   0  0  0  0  0  0  0  0  0  0  0  0
    1.4917   -1.1542    0.0000 C   0  0  0  0  0  0  0  0  0  0  0  0
    1.5000   -2.4625    0.0000 C   0  0  0  0  0  0  0  0  0  0  0  0
    0.3667   -1.8167    0.0000 C   0  0  0  0  0  0  0  0  0  0  0  0
   -0.3833   -1.8167    0.0000 N   0  0  0  0  0  0  0  0  0  0  0  0
    0.7417   -2.4667    0.0000 C   0  0  0  0  0  0  0  0  0  0  0  0
    0.7417   -1.1625    0.0000 C   0  0  0  0  0  0  0  0  0  0  0  0
    4.8792    0.3708    0.0000 C   0  0  0  0  0  0  0  0  0  0  0  0
  2  1  1  0
  3  2  1  0
  4  3  2  0
  5  3  1  0
  6  4  1  0
  7  1  1  0
  8  5  2  0
  9  1  2  0
 10  1  2  0
 11  7  2  0
 12  7  1  0
 13 15  1  0
 14 13  1  0
 15 12  2  0
 16 11  1  0
 17  8  1  0
 13 16  2  0
  8  6  1  0
M  END
>  <ID>  (537) 


>  <MOLENAME>  (537) 
SULFAMETHOXAZOLE

>  <therap>  (537) 
antibacterial, antipneumocystis

>  <ref>  (537) 
Anal Profiles Drug Subs 2:467 (1973); Chemotherapy 21:187 (1973); Rev Infect Dis 9 Suppl 2:S152 (1987)

>  <cas#>  (537) 
723-46-6

>  <source>  (537) 
synthetic; Ro-4-2130

>  <status>  (537) 
USP, INN, BAN, JAN

>  <tradename>  (537) 
GANTANOL

>  <SMILES>  (537) 
Cc1cc(NS(=O)(=O)c2ccc(N)cc2)no1

>  <standardized_failed>  (537) 
False

$$$$

     RDKit          2D

 17 18  0  0  0  0  0  0  0  0999 V2000
    4.2542   -2.1417    0.0000 S   0  0  0  0  0  0  0  0  0  0  0  0
    5.3500   -2.1417    0.0000 N   0  0  0  0  0  0  0  0  0  0  0  0
    3.5042   -2.1417    0.0000 C   0  0  0  0  0  0  0  0  0  0  0  0
    5.7250   -2.7917    0.0000 C   0  0  0  0  0  0  0  0  0  0  0  0
    4.6292   -1.5000    0.0000 O   0  0  0  0  0  0  0  0  0  0  0  0
    4.6292   -2.7917    0.0000 O   0  0  0  0  0  0  0  0  0  0  0  0
    5.3500   -3.4417    0.0000 N   0  0  0  0  0  0  0  0  0  0  0  0
    3.1292   -1.4917    0.0000 C   0  0  0  0  0  0  0  0  0  0  0  0
    3.1292   -2.7917    0.0000 C   0  0  0  0  0  0  0  0  0  0  0  0
    2.0000   -2.1417    0.0000 C   0  0  0  0  0  0  0  0  0  0  0  0
    1.2500   -2.1417    0.0000 N   0  0  0  0  0  0  0  0  0  0  0  0
    2.3792   -2.7917    0.0000 C   0  0  0  0  0  0  0  0  0  0  0  0
    2.3750   -1.4917    0.0000 C   0  0  0  0  0  0  0  0  0  0  0  0
    5.7292   -4.0917    0.0000 C   0  0  0  0  0  0  0  0  0  0  0  0
    6.4750   -2.7917    0.0000 C   0  0  0  0  0  0  0  0  0  0  0  0
    6.4792   -4.0875    0.0000 C   0  0  0  0  0  0  0  0  0  0  0  0
    6.8500   -3.4375    0.0000 C   0  0  0  0  0  0  0  0  0  0  0  0
  2  1  1  0
  3  1  1  0
  4  2  1  0
  5  1  2  0
  6  1  2  0
  7  4  2  0
  8  3  2  0
  9  3  1  0
 10 12  1  0
 11 10  1  0
 12  9  2  0
 13  8  1  0
 14  7  1  0
 15  4  1  0
 16 17  1  0
 17 15  2  0
 10 13  2  0
 16 14  2  0
M  END
>  <ID>  (538) 


>  <MOLENAME>  (538) 
SULFAPYRIDINE

>  <therap>  (538) 
antibacterial, dermatitis herpetiformis therapy

>  <ref>  (538) 
J Pharmacol Exper Ther 84:203, 211 (1945); Br J Opthalmol 80:549 (1946)

>  <cas#>  (538) 
144-83-2

>  <source>  (538) 
synthetic; M&B-693

>  <status>  (538) 
USP, INN, BAN

>  <tradename>  (538) 
SULPHAPYRIDINE

>  <SMILES>  (538) 
Nc1ccc(S(=O)(=O)Nc2ncccc2)cc1

>  <standardized_failed>  (538) 
False

$$$$

     RDKit          2D

 28 30  0  0  0  0  0  0  0  0999 V2000
    3.7792   -1.5667    0.0000 S   0  0  0  0  0  0  0  0  0  0  0  0
    4.8750   -1.5667    0.0000 N   0  0  0  0  0  0  0  0  0  0  0  0
   -1.4750   -0.2667    0.0000 C   0  0  0  0  0  0  0  0  0  0  0  0
   -1.8583    0.3750    0.0000 C   0  0  0  0  0  0  0  0  0  0  0  0
    3.0292   -1.5667    0.0000 C   0  0  0  0  0  0  0  0  0  0  0  0
    0.4000   -0.9167    0.0000 N   0  0  0  0  0  0  0  0  0  0  0  0
    0.7750   -1.5667    0.0000 N   0  0  0  0  0  0  0  0  0  0  0  0
    5.2500   -2.2125    0.0000 C   0  0  0  0  0  0  0  0  0  0  0  0
    4.1542   -0.9167    0.0000 O   0  0  0  0  0  0  0  0  0  0  0  0
    4.1542   -2.2167    0.0000 O   0  0  0  0  0  0  0  0  0  0  0  0
   -1.8500   -0.9167    0.0000 C   0  0  0  0  0  0  0  0  0  0  0  0
   -0.7250   -0.2667    0.0000 C   0  0  0  0  0  0  0  0  0  0  0  0
    4.8750   -2.8625    0.0000 N   0  0  0  0  0  0  0  0  0  0  0  0
   -1.4833    1.0333    0.0000 O   0  0  0  0  0  0  0  0  0  0  0  0
   -0.3500   -0.9167    0.0000 C   0  0  0  0  0  0  0  0  0  0  0  0
    2.6542   -0.9125    0.0000 C   0  0  0  0  0  0  0  0  0  0  0  0
    2.6542   -2.2167    0.0000 C   0  0  0  0  0  0  0  0  0  0  0  0
   -1.4750   -1.5667    0.0000 C   0  0  0  0  0  0  0  0  0  0  0  0
    1.5250   -1.5667    0.0000 C   0  0  0  0  0  0  0  0  0  0  0  0
   -2.6083    0.3750    0.0000 O   0  0  0  0  0  0  0  0  0  0  0  0
   -0.7250   -1.5667    0.0000 C   0  0  0  0  0  0  0  0  0  0  0  0
    1.9042   -2.2167    0.0000 C   0  0  0  0  0  0  0  0  0  0  0  0
    1.9000   -0.9125    0.0000 C   0  0  0  0  0  0  0  0  0  0  0  0
   -2.6000   -0.9250    0.0000 O   0  0  0  0  0  0  0  0  0  0  0  0
    5.2542   -3.5125    0.0000 C   0  0  0  0  0  0  0  0  0  0  0  0
    6.0000   -2.2125    0.0000 C   0  0  0  0  0  0  0  0  0  0  0  0
    6.0042   -3.5042    0.0000 C   0  0  0  0  0  0  0  0  0  0  0  0
    6.3750   -2.8542    0.0000 C   0  0  0  0  0  0  0  0  0  0  0  0
  2  1  1  0
  3 12  2  0
  4  3  1  0
  5  1  1  0
  6  7  2  0
  7 19  1  0
  8  2  1  0
  9  1  2  0
 10  1  2  0
 11 18  2  0
 12 15  1  0
 13  8  2  0
 14  4  2  0
 15  6  1  0
 16  5  2  0
 17  5  1  0
 18 21  1  0
 19 22  1  0
 20  4  1  0
 21 15  2  0
 22 17  2  0
 23 16  1  0
 24 11  1  0
 25 13  1  0
 26  8  1  0
 27 28  1  0
 28 26  2  0
 19 23  2  0
 27 25  2  0
 11  3  1  0
M  END
>  <ID>  (539) 


>  <MOLENAME>  (539) 
SULFASALAZINE

>  <therap>  (539) 
anticolitis and Crohn's disease

>  <ref>  (539) 
Ann Rheum Dis 44:194 (1985); Anal Profiles Drug Subs 5:515 (1976)

>  <cas#>  (539) 
599-79-1

>  <source>  (539) 
synthetic

>  <status>  (539) 
USP, INN, BAN

>  <tradename>  (539) 
AZULFIDINE

>  <SMILES>  (539) 
O=C(O)c1cc(/N=N/c2ccc(S(=O)(=O)Nc3ncccc3)cc2)ccc1O

>  <standardized_failed>  (539) 
False

$$$$

     RDKit          2D

 16 17  0  0  0  0  0  0  0  0999 V2000
    5.9667  -10.5250    0.0000 S   0  0  0  0  0  0  0  0  0  0  0  0
    7.0542  -10.5250    0.0000 N   0  0  0  0  0  0  0  0  0  0  0  0
    7.8792  -10.5167    0.0000 C   0  0  0  0  0  0  0  0  0  0  0  0
    8.3667  -11.1792    0.0000 N   0  0  0  0  0  0  0  0  0  0  0  0
    5.2167  -10.5250    0.0000 C   0  0  0  0  0  0  0  0  0  0  0  0
    8.3625   -9.8417    0.0000 S   0  0  0  0  0  0  0  0  0  0  0  0
    6.3417   -9.8750    0.0000 O   0  0  0  0  0  0  0  0  0  0  0  0
    6.3417  -11.1750    0.0000 O   0  0  0  0  0  0  0  0  0  0  0  0
    9.1542  -10.9167    0.0000 C   0  0  0  0  0  0  0  0  0  0  0  0
    9.1417  -10.0917    0.0000 C   0  0  0  0  0  0  0  0  0  0  0  0
    4.8375  -11.1750    0.0000 C   0  0  0  0  0  0  0  0  0  0  0  0
    4.8375   -9.8667    0.0000 C   0  0  0  0  0  0  0  0  0  0  0  0
    3.7042  -10.5250    0.0000 C   0  0  0  0  0  0  0  0  0  0  0  0
    2.9542  -10.5250    0.0000 N   0  0  0  0  0  0  0  0  0  0  0  0
    4.0792   -9.8667    0.0000 C   0  0  0  0  0  0  0  0  0  0  0  0
    4.0875  -11.1750    0.0000 C   0  0  0  0  0  0  0  0  0  0  0  0
  2  1  1  0
  3  2  1  0
  4  3  2  0
  5  1  1  0
  6  3  1  0
  7  1  2  0
  8  1  2  0
  9  4  1  0
 10  6  1  0
 11  5  2  0
 12  5  1  0
 13 15  1  0
 14 13  1  0
 15 12  2  0
 16 11  1  0
 16 13  2  0
 10  9  2  0
M  END
>  <ID>  (540) 


>  <MOLENAME>  (540) 
SULFATHIAZOLE

>  <therap>  (540) 
antibacterial

>  <ref>  (540) 
Anal Profiles Drug Subs Excip 22:389 (1993)

>  <cas#>  (540) 
72-14-0

>  <source>  (540) 
synthetic

>  <status>  (540) 
USP, INN, BAN

>  <tradename>  (540) 
THIAZAMIDE

>  <SMILES>  (540) 
Nc1ccc(S(=O)(=O)Nc2nccs2)cc1

>  <standardized_failed>  (540) 
False

$$$$

     RDKit          2D

 29 32  0  0  0  0  0  0  0  0999 V2000
    4.7042   -0.8625    0.0000 N   0  0  0  0  0  0  0  0  0  0  0  0
    4.0917   -0.3042    0.0000 N   0  0  0  0  0  0  0  0  0  0  0  0
    3.3792   -0.7167    0.0000 C   0  0  0  0  0  0  0  0  0  0  0  0
    4.3750   -1.6042    0.0000 C   0  0  0  0  0  0  0  0  0  0  0  0
    3.5542   -1.5250    0.0000 C   0  0  0  0  0  0  0  0  0  0  0  0
    1.6500   -2.5917    0.0000 S   0  0  0  0  0  0  0  0  0  0  0  0
    3.0042   -2.1417    0.0000 C   0  0  0  0  0  0  0  0  0  0  0  0
    4.0917    0.5250    0.0000 C   0  0  0  0  0  0  0  0  0  0  0  0
    5.4875   -0.6125    0.0000 C   0  0  0  0  0  0  0  0  0  0  0  0
    2.6125   -0.3792    0.0000 O   0  0  0  0  0  0  0  0  0  0  0  0
    4.8000   -2.3167    0.0000 O   0  0  0  0  0  0  0  0  0  0  0  0
    2.1917   -1.9750    0.0000 C   0  0  0  0  0  0  0  0  0  0  0  0
    1.9167   -3.3667    0.0000 O   0  0  0  0  0  0  0  0  0  0  0  0
    0.8417   -2.4292    0.0000 C   0  0  0  0  0  0  0  0  0  0  0  0
    3.3750    0.9375    0.0000 C   0  0  0  0  0  0  0  0  0  0  0  0
    4.8042    0.9375    0.0000 C   0  0  0  0  0  0  0  0  0  0  0  0
    6.0917   -1.1667    0.0000 C   0  0  0  0  0  0  0  0  0  0  0  0
    5.6667    0.1958    0.0000 C   0  0  0  0  0  0  0  0  0  0  0  0
    0.5792   -1.6542    0.0000 C   0  0  0  0  0  0  0  0  0  0  0  0
    0.3042   -3.0500    0.0000 C   0  0  0  0  0  0  0  0  0  0  0  0
   -0.2333   -1.4917    0.0000 C   0  0  0  0  0  0  0  0  0  0  0  0
   -0.5083   -2.8917    0.0000 C   0  0  0  0  0  0  0  0  0  0  0  0
    4.8042    1.7708    0.0000 C   0  0  0  0  0  0  0  0  0  0  0  0
    6.8792   -0.9167    0.0000 C   0  0  0  0  0  0  0  0  0  0  0  0
    6.4500    0.4375    0.0000 C   0  0  0  0  0  0  0  0  0  0  0  0
    3.3750    1.7708    0.0000 C   0  0  0  0  0  0  0  0  0  0  0  0
    7.0542   -0.1250    0.0000 C   0  0  0  0  0  0  0  0  0  0  0  0
    4.0917    2.1833    0.0000 C   0  0  0  0  0  0  0  0  0  0  0  0
   -0.7750   -2.1125    0.0000 C   0  0  0  0  0  0  0  0  0  0  0  0
  2  1  1  0
  3  2  1  0
  4  1  1  0
  5  4  1  0
  6 12  1  0
  7  5  1  0
  8  2  1  0
  9  1  1  0
 10  3  2  0
 11  4  2  0
 12  7  1  0
 13  6  2  0
 14  6  1  0
 15  8  2  0
 16  8  1  0
 17  9  2  0
 18  9  1  0
 19 14  2  0
 20 14  1  0
 21 19  1  0
 22 20  2  0
 23 16  2  0
 24 17  1  0
 25 18  2  0
 26 15  1  0
 27 25  1  0
 28 23  1  0
 29 22  1  0
  5  3  1  0
 27 24  2  0
 26 28  2  0
 29 21  2  0
M  END
>  <ID>  (541) 


>  <MOLENAME>  (541) 
SULFINPYRAZONE

>  <therap>  (541) 
uricosuric

>  <ref>  (541) 
N Engl J Med 298:289 (1978); 302:250 (1980); Drugs 20:179 (1980)

>  <cas#>  (541) 
57-96-5

>  <source>  (541) 
synthetic

>  <status>  (541) 
USP, INN, BAN, JAN

>  <tradename>  (541) 
ANTURANE

>  <SMILES>  (541) 
O=C1C(CC[S+]([O-])c2ccccc2)C(=O)N(c2ccccc2)N1c1ccccc1

>  <standardized_failed>  (541) 
False

$$$$

     RDKit          2D

 18 19  0  0  0  0  0  0  0  0999 V2000
    3.3417   -2.2667    0.0000 S   0  0  0  0  0  0  0  0  0  0  0  0
    5.2167   -2.6167    0.0000 C   0  0  0  0  0  0  0  0  0  0  0  0
    4.4292   -2.2667    0.0000 N   0  0  0  0  0  0  0  0  0  0  0  0
    5.4500   -3.3417    0.0000 C   0  0  0  0  0  0  0  0  0  0  0  0
    6.4375   -2.6167    0.0000 N   0  0  0  0  0  0  0  0  0  0  0  0
    5.8292   -2.1792    0.0000 O   0  0  0  0  0  0  0  0  0  0  0  0
    6.2042   -3.3417    0.0000 C   0  0  0  0  0  0  0  0  0  0  0  0
    2.5917   -2.2667    0.0000 C   0  0  0  0  0  0  0  0  0  0  0  0
    3.7167   -1.6167    0.0000 O   0  0  0  0  0  0  0  0  0  0  0  0
    3.7167   -2.9167    0.0000 O   0  0  0  0  0  0  0  0  0  0  0  0
    2.2125   -2.9167    0.0000 C   0  0  0  0  0  0  0  0  0  0  0  0
    2.2125   -1.6125    0.0000 C   0  0  0  0  0  0  0  0  0  0  0  0
    5.0125   -3.9417    0.0000 C   0  0  0  0  0  0  0  0  0  0  0  0
    1.0792   -2.2667    0.0000 C   0  0  0  0  0  0  0  0  0  0  0  0
    0.3292   -2.2667    0.0000 N   0  0  0  0  0  0  0  0  0  0  0  0
    1.4625   -2.9167    0.0000 C   0  0  0  0  0  0  0  0  0  0  0  0
    1.4542   -1.6125    0.0000 C   0  0  0  0  0  0  0  0  0  0  0  0
    6.6417   -3.9417    0.0000 C   0  0  0  0  0  0  0  0  0  0  0  0
  2  3  1  0
  3  1  1  0
  4  2  2  0
  5  6  1  0
  6  2  1  0
  7  4  1  0
  8  1  1  0
  9  1  2  0
 10  1  2  0
 11  8  2  0
 12  8  1  0
 13  4  1  0
 14 17  1  0
 15 14  1  0
 16 11  1  0
 17 12  2  0
 18  7  1  0
 16 14  2  0
  5  7  2  0
M  END
>  <ID>  (542) 


>  <MOLENAME>  (542) 
SULFISOXAZOLE

>  <therap>  (542) 
antibacterial

>  <ref>  (542) 
Arzneim Forsch 15:1441 (1965); Pediatrics 88:215 (1991)

>  <cas#>  (542) 
127-69-5

>  <source>  (542) 
synthetic

>  <status>  (542) 
USP, INN, BAN, JAN

>  <tradename>  (542) 
SULFAFURAZOLE

>  <SMILES>  (542) 
Cc1noc(NS(=O)(=O)c2ccc(N)cc2)c1C

>  <standardized_failed>  (542) 
False

$$$$

     RDKit          2D

 25 27  0  0  0  0  0  0  0  0999 V2000
    6.6042  -10.8792    0.0000 C   0  0  0  0  0  0  0  0  0  0  0  0
    6.6042  -12.2042    0.0000 C   0  0  0  0  0  0  0  0  0  0  0  0
    7.0875  -11.5417    0.0000 C   0  0  0  0  0  0  0  0  0  0  0  0
    5.8167  -11.9542    0.0000 C   0  0  0  0  0  0  0  0  0  0  0  0
    5.8167  -11.1292    0.0000 C   0  0  0  0  0  0  0  0  0  0  0  0
    6.8542  -10.0917    0.0000 C   0  0  0  0  0  0  0  0  0  0  0  0
    4.6500   -7.6500    0.0000 S   0  0  0  0  0  0  0  0  0  0  0  0
    6.8542  -13.0000    0.0000 C   0  0  0  0  0  0  0  0  0  0  0  0
    5.1042  -10.7167    0.0000 C   0  0  0  0  0  0  0  0  0  0  0  0
    6.3042  -13.6042    0.0000 C   0  0  0  0  0  0  0  0  0  0  0  0
    5.1042  -12.3667    0.0000 C   0  0  0  0  0  0  0  0  0  0  0  0
    5.2042   -8.2625    0.0000 C   0  0  0  0  0  0  0  0  0  0  0  0
    3.8417   -7.8250    0.0000 O   0  0  0  0  0  0  0  0  0  0  0  0
    6.5542  -14.3917    0.0000 O   0  0  0  0  0  0  0  0  0  0  0  0
    6.3042   -9.4792    0.0000 C   0  0  0  0  0  0  0  0  0  0  0  0
    4.9500   -9.0417    0.0000 C   0  0  0  0  0  0  0  0  0  0  0  0
    6.0042   -8.0875    0.0000 C   0  0  0  0  0  0  0  0  0  0  0  0
    4.3917  -11.9542    0.0000 C   0  0  0  0  0  0  0  0  0  0  0  0
    4.3917  -11.1292    0.0000 C   0  0  0  0  0  0  0  0  0  0  0  0
    7.9125  -11.5375    0.0000 C   0  0  0  0  0  0  0  0  0  0  0  0
    5.5042  -13.4292    0.0000 O   0  0  0  0  0  0  0  0  0  0  0  0
    6.5542   -8.6917    0.0000 C   0  0  0  0  0  0  0  0  0  0  0  0
    5.5042   -9.6542    0.0000 C   0  0  0  0  0  0  0  0  0  0  0  0
    3.6667  -12.3667    0.0000 F   0  0  0  0  0  0  0  0  0  0  0  0
    4.9042   -6.8667    0.0000 C   0  0  0  0  0  0  0  0  0  0  0  0
  2  3  2  0
  3  1  1  0
  4  5  2  0
  5  1  1  0
  6  1  2  0
  7 12  1  0
  8  2  1  0
  9  5  1  0
 10  8  1  0
 11  4  1  0
 12 16  2  0
 13  7  2  0
 14 10  2  0
 15  6  1  0
 16 23  1  0
 17 22  2  0
 18 19  1  0
 19  9  2  0
 20  3  1  0
 21 10  1  0
 22 15  1  0
 23 15  2  0
 24 18  1  0
 25  7  1  0
  2  4  1  0
 17 12  1  0
 11 18  2  0
M  END
>  <ID>  (543) 


>  <MOLENAME>  (543) 
SULINDAC

>  <therap>  (543) 
antiinflammatory

>  <ref>  (543) 
Drugs 16:97 (1978); Dig Dis 12:259 (1994)

>  <cas#>  (543) 
38194-50-2

>  <source>  (543) 
synthetic

>  <status>  (543) 
USP, INN, BAN, JAN

>  <tradename>  (543) 
CLINORIL

>  <SMILES>  (543) 
CC1=C(CC(=O)O)c2cc(F)ccc2/C1=C\c1ccc([S+](C)[O-])cc1

>  <standardized_failed>  (543) 
False

$$$$

     RDKit          2D

 41 42  0  0  0  0  0  0  0  0999 V2000
    5.9917   -7.3500    0.0000 C   0  0  0  0  0  0  0  0  0  0  0  0
    7.6125   -3.9125    0.0000 C   0  0  0  0  0  0  0  0  0  0  0  0
    7.9875   -3.2625    0.0000 C   0  0  0  0  0  0  0  0  0  0  0  0
    5.4042   -7.6917    0.0000 C   0  0  0  0  0  0  0  0  0  0  0  0
    5.9917   -6.6667    0.0000 C   0  0  0  0  0  0  0  0  0  0  0  0
    6.5792   -7.6917    0.0000 C   0  0  0  0  0  0  0  0  0  0  0  0
    4.8167   -7.3500    0.0000 C   0  0  0  0  0  0  0  0  0  0  0  0
    6.5792   -6.3250    0.0000 C   0  0  0  0  0  0  0  0  0  0  0  0
    6.8625   -3.9125    0.0000 C   0  0  0  0  0  0  0  0  0  0  0  0
    7.9875   -4.5625    0.0000 C   0  0  0  0  0  0  0  0  0  0  0  0
    7.6125   -2.6167    0.0000 C   0  0  0  0  0  0  0  0  0  0  0  0
    6.5792   -8.3750    0.0000 O   0  0  0  0  0  0  0  0  0  0  0  0
    6.5792   -5.6417    0.0000 O   0  0  0  0  0  0  0  0  0  0  0  0
    4.2167   -7.6917    0.0000 O   0  0  0  0  0  0  0  0  0  0  0  0
    6.4875   -3.2625    0.0000 C   0  0  0  0  0  0  0  0  0  0  0  0
    6.4875   -4.5625    0.0000 C   0  0  0  0  0  0  0  0  0  0  0  0
    5.8125   -8.0042    0.0000 O   0  0  0  0  0  0  0  0  0  0  0  0
    7.1750   -7.3500    0.0000 O   0  0  0  0  0  0  0  0  0  0  0  0
    3.1125   -5.2042    0.0000 N   0  0  0  0  0  0  0  0  0  0  0  0
    5.3625   -3.9125    0.0000 C   0  0  0  0  0  0  0  0  0  0  0  0
    7.1750   -6.6667    0.0000 O   0  0  0  0  0  0  0  0  0  0  0  0
    4.8167   -6.6667    0.0000 O   0  0  0  0  0  0  0  0  0  0  0  0
    5.7375   -4.5625    0.0000 C   0  0  0  0  0  0  0  0  0  0  0  0
    5.7375   -3.2625    0.0000 C   0  0  0  0  0  0  0  0  0  0  0  0
    8.7375   -3.2625    0.0000 C   0  0  0  0  0  0  0  0  0  0  0  0
    4.6125   -3.9125    0.0000 O   0  0  0  0  0  0  0  0  0  0  0  0
    4.2375   -4.5625    0.0000 C   0  0  0  0  0  0  0  0  0  0  0  0
    3.4875   -4.5625    0.0000 C   0  0  0  0  0  0  0  0  0  0  0  0
    7.6125   -5.2125    0.0000 C   0  0  0  0  0  0  0  0  0  0  0  0
    8.7375   -4.5625    0.0000 C   0  0  0  0  0  0  0  0  0  0  0  0
    7.9875   -1.9667    0.0000 C   0  0  0  0  0  0  0  0  0  0  0  0
    6.8625   -2.6167    0.0000 C   0  0  0  0  0  0  0  0  0  0  0  0
    3.4875   -5.8500    0.0000 C   0  0  0  0  0  0  0  0  0  0  0  0
    2.3625   -5.2042    0.0000 C   0  0  0  0  0  0  0  0  0  0  0  0
    9.1125   -3.9125    0.0000 C   0  0  0  0  0  0  0  0  0  0  0  0
    9.1125   -5.2042    0.0000 C   0  0  0  0  0  0  0  0  0  0  0  0
    7.9875   -5.8625    0.0000 C   0  0  0  0  0  0  0  0  0  0  0  0
    7.6125   -1.3167    0.0000 C   0  0  0  0  0  0  0  0  0  0  0  0
    6.4875   -1.9750    0.0000 C   0  0  0  0  0  0  0  0  0  0  0  0
    6.8625   -1.3167    0.0000 C   0  0  0  0  0  0  0  0  0  0  0  0
    8.7375   -5.8625    0.0000 C   0  0  0  0  0  0  0  0  0  0  0  0
  3  2  2  0
  4  1  1  0
  5  1  1  0
  6  1  1  0
  7  4  1  0
  8  5  1  0
  9  2  1  0
 10  2  1  0
 11  3  1  0
 12  6  2  0
 13  8  2  0
 14  7  2  0
 15  9  2  0
 16  9  1  0
 17  1  1  0
 18  6  1  0
 19 28  1  0
 20 23  1  0
 21  8  1  0
 22  7  1  0
 23 16  2  0
 24 15  1  0
 25  3  1  0
 26 20  1  0
 27 26  1  0
 28 27  1  0
 29 10  2  0
 30 10  1  0
 31 11  2  0
 32 11  1  0
 33 19  1  0
 34 19  1  0
 35 25  1  0
 36 30  2  0
 37 29  1  0
 38 31  1  0
 39 32  2  0
 40 39  1  0
 41 36  1  0
 24 20  2  0
 37 41  2  0
 38 40  2  0
M  END
>  <ID>  (544) 


>  <MOLENAME>  (544) 
TAMOXIFEN CITRATE

>  <therap>  (544) 
estrogen antagonist, antineoplastic

>  <ref>  (544) 
J Clin Oncol 13:513 (1995); N Engl J Med 339:1609 (1998)

>  <cas#>  (544) 
54965-24-1, 10540-29-1 [tamoxifen]

>  <source>  (544) 
synthetic; ICI-46474

>  <status>  (544) 
USP, INN, BAN, JAN

>  <tradename>  (544) 
SOLTAMOX

>  <SMILES>  (544) 
CC/C(=C(\c1ccccc1)c1ccc(OCCN(C)C)cc1)c1ccccc1

>  <standardized_failed>  (544) 
False

$$$$

     RDKit          2D

 21 20  0  0  0  0  0  0  0  0999 V2000
    9.8875   -4.7792    0.0000 S   0  0  0  0  0  0  0  0  0  0  0  0
    4.2917   -5.0667    0.0000 C   0  0  0  0  0  0  0  0  0  0  0  0
    9.8875   -5.4375    0.0000 O   0  0  0  0  0  0  0  0  0  0  0  0
   10.5417   -4.7792    0.0000 O   0  0  0  0  0  0  0  0  0  0  0  0
    4.0167   -4.3750    0.0000 C   0  0  0  0  0  0  0  0  0  0  0  0
    3.8167   -5.6500    0.0000 C   0  0  0  0  0  0  0  0  0  0  0  0
    6.2542   -4.7042    0.0000 N   0  0  0  0  0  0  0  0  0  0  0  0
    3.0792   -5.5375    0.0000 C   0  0  0  0  0  0  0  0  0  0  0  0
    3.2792   -4.2542    0.0000 C   0  0  0  0  0  0  0  0  0  0  0  0
    2.8042   -4.8417    0.0000 C   0  0  0  0  0  0  0  0  0  0  0  0
    9.2292   -4.7792    0.0000 O   0  0  0  0  0  0  0  0  0  0  0  0
    9.8875   -4.1250    0.0000 O   0  0  0  0  0  0  0  0  0  0  0  0
    5.0417   -5.1792    0.0000 C   0  0  0  0  0  0  0  0  0  0  0  0
    6.7167   -4.1167    0.0000 C   0  0  0  0  0  0  0  0  0  0  0  0
    5.5042   -4.5917    0.0000 C   0  0  0  0  0  0  0  0  0  0  0  0
    2.6167   -6.1250    0.0000 O   0  0  0  0  0  0  0  0  0  0  0  0
    2.9917   -3.5542    0.0000 O   0  0  0  0  0  0  0  0  0  0  0  0
    5.3167   -5.8792    0.0000 O   0  0  0  0  0  0  0  0  0  0  0  0
    7.3042   -4.5792    0.0000 C   0  0  0  0  0  0  0  0  0  0  0  0
    7.1792   -3.5250    0.0000 C   0  0  0  0  0  0  0  0  0  0  0  0
    6.1167   -3.6500    0.0000 C   0  0  0  0  0  0  0  0  0  0  0  0
  3  1  2  0
  4  1  2  0
  5  2  2  0
  6  2  1  0
  7 15  1  0
  8  6  2  0
  9  5  1  0
 10  8  1  0
 11  1  1  0
 12  1  1  0
 13  2  1  0
 14  7  1  0
 15 13  1  0
 16  8  1  0
 17  9  1  0
 18 13  1  0
 19 14  1  0
 20 14  1  0
 21 14  1  0
  9 10  2  0
M  END
>  <ID>  (545) 


>  <MOLENAME>  (545) 
TERBUTALINE HEMISULFATE

>  <therap>  (545) 
betaadrenergic agonist, bronchodilator

>  <ref>  (545) 
Anal Profiles Drug Subs 19:601 (1990); Crit Care Clin 7:639 (1991)

>  <cas#>  (545) 
23031-32-5

>  <source>  (545) 
synthetic; KWD-2019

>  <status>  (545) 
USP, INN, BAN, JAN

>  <tradename>  (545) 
BRETHAIRE

>  <SMILES>  (545) 
CC(C)(C)NCC(O)c1cc(O)cc(O)c1

>  <standardized_failed>  (545) 
False

$$$$

     RDKit          2D

 20 19  0  0  0  0  0  0  0  0999 V2000
    8.5917   -3.9250    0.0000 C   0  0  0  0  0  0  0  0  0  0  0  0
    7.8417   -3.9250    0.0000 C   0  0  0  0  0  0  0  0  0  0  0  0
    8.9667   -3.2750    0.0000 O   0  0  0  0  0  0  0  0  0  0  0  0
    7.4667   -4.5750    0.0000 C   0  0  0  0  0  0  0  0  0  0  0  0
    7.4667   -3.2792    0.0000 C   0  0  0  0  0  0  0  0  0  0  0  0
    8.9667   -4.5750    0.0000 O   0  0  0  0  0  0  0  0  0  0  0  0
    6.3417   -3.9250    0.0000 C   0  0  0  0  0  0  0  0  0  0  0  0
    8.5917   -6.5250    0.0000 N   0  0  0  0  0  0  0  0  0  0  0  0
    5.5917   -3.9250    0.0000 N   0  0  0  0  0  0  0  0  0  0  0  0
    6.7167   -3.2792    0.0000 C   0  0  0  0  0  0  0  0  0  0  0  0
    6.7167   -4.5750    0.0000 C   0  0  0  0  0  0  0  0  0  0  0  0
    9.8875   -5.9667    0.0000 Cl  0  0  0  0  0  0  0  0  0  0  0  0
    8.5917   -5.2250    0.0000 C   0  0  0  0  0  0  0  0  0  0  0  0
    8.9667   -5.8750    0.0000 C   0  0  0  0  0  0  0  0  0  0  0  0
    5.2167   -3.2792    0.0000 C   0  0  0  0  0  0  0  0  0  0  0  0
    7.8417   -6.5250    0.0000 C   0  0  0  0  0  0  0  0  0  0  0  0
    8.9667   -7.1667    0.0000 C   0  0  0  0  0  0  0  0  0  0  0  0
    4.4667   -3.2792    0.0000 C   0  0  0  0  0  0  0  0  0  0  0  0
    4.0917   -2.6375    0.0000 C   0  0  0  0  0  0  0  0  0  0  0  0
    3.3417   -2.6375    0.0000 C   0  0  0  0  0  0  0  0  0  0  0  0
  2  1  1  0
  3  1  2  0
  4  2  2  0
  5  2  1  0
  6  1  1  0
  7 10  1  0
  8 14  1  0
  9  7  1  0
 10  5  2  0
 11  4  1  0
 13  6  1  0
 14 13  1  0
 15  9  1  0
 16  8  1  0
 17  8  1  0
 18 15  1  0
 19 18  1  0
 20 19  1  0
 11  7  2  0
M  END
>  <ID>  (546) 


>  <MOLENAME>  (546) 
TETRACAINE HYDROCHLORIDE

>  <therap>  (546) 
anesthetic (local)

>  <ref>  (546) 
Anesthesiology 11:606 (1950); Am J Health-System Pharm 54:388 (1997)

>  <cas#>  (546) 
136-47-0, 94-24-6 [tetracaine]

>  <source>  (546) 
synthetic

>  <status>  (546) 
USP, BAN, JAN

>  <tradename>  (546) 
PONTOCAINE

>  <SMILES>  (546) 
CCCCNc1ccc(C(=O)OCCN(C)C)cc1

>  <standardized_failed>  (546) 
False

$$$$

     RDKit          2D

 33 35  0  0  0  0  0  0  0  0999 V2000
    6.8667   -4.2917    0.0000 C   0  0  0  0  0  0  0  0  0  0  0  0
    5.4417   -4.2917    0.0000 C   0  0  0  0  0  0  0  0  0  0  0  0
    8.3000   -4.2917    0.0000 C   0  0  0  0  0  0  0  0  0  0  0  0
    6.1542   -3.8792    0.0000 C   0  0  0  0  0  0  0  0  0  0  0  0
    7.5792   -3.8792    0.0000 C   0  0  0  0  0  0  0  0  0  0  0  0
    6.8667   -5.1167    0.0000 C   0  0  0  0  0  0  0  0  0  0  0  0
    8.3000   -5.1167    0.0000 C   0  0  0  0  0  0  0  0  0  0  0  0
    4.7292   -3.8792    0.0000 C   0  0  0  0  0  0  0  0  0  0  0  0
    5.4417   -5.1167    0.0000 C   0  0  0  0  0  0  0  0  0  0  0  0
    4.0125   -4.2917    0.0000 C   0  0  0  0  0  0  0  0  0  0  0  0
    4.7292   -5.5292    0.0000 C   0  0  0  0  0  0  0  0  0  0  0  0
    4.0125   -5.1167    0.0000 C   0  0  0  0  0  0  0  0  0  0  0  0
    7.5792   -5.5292    0.0000 C   0  0  0  0  0  0  0  0  0  0  0  0
    6.1542   -5.5292    0.0000 C   0  0  0  0  0  0  0  0  0  0  0  0
    9.0167   -3.8792    0.0000 C   0  0  0  0  0  0  0  0  0  0  0  0
    7.5792   -3.0542    0.0000 O   0  0  0  0  0  0  0  0  0  0  0  0
    4.7292   -3.0542    0.0000 O   0  0  0  0  0  0  0  0  0  0  0  0
    7.5792   -6.3542    0.0000 N   0  0  0  0  0  0  0  0  0  0  0  0
    3.3000   -3.8792    0.0000 C   0  0  0  0  0  0  0  0  0  0  0  0
    6.8792   -3.5375    0.0000 O   0  0  0  0  0  0  0  0  0  0  0  0
    9.7292   -4.2917    0.0000 O   0  0  0  0  0  0  0  0  0  0  0  0
    6.1542   -3.0542    0.0000 O   0  0  0  0  0  0  0  0  0  0  0  0
    9.0167   -5.5375    0.0000 O   0  0  0  0  0  0  0  0  0  0  0  0
    4.1667   -6.1417    0.0000 O   0  0  0  0  0  0  0  0  0  0  0  0
    9.0250   -3.0542    0.0000 N   0  0  0  0  0  0  0  0  0  0  0  0
    3.3000   -5.5292    0.0000 C   0  0  0  0  0  0  0  0  0  0  0  0
    5.1417   -6.2417    0.0000 C   0  0  0  0  0  0  0  0  0  0  0  0
    3.3000   -3.0542    0.0000 O   0  0  0  0  0  0  0  0  0  0  0  0
    9.0417   -6.6542    0.0000 Cl  0  0  0  0  0  0  0  0  0  0  0  0
    2.5792   -5.1167    0.0000 C   0  0  0  0  0  0  0  0  0  0  0  0
    2.5792   -4.2917    0.0000 C   0  0  0  0  0  0  0  0  0  0  0  0
    6.8667   -6.7667    0.0000 C   0  0  0  0  0  0  0  0  0  0  0  0
    8.3000   -6.7667    0.0000 C   0  0  0  0  0  0  0  0  0  0  0  0
  2  4  2  0
  3  5  1  0
  4  1  1  0
  5  1  1  0
  6  1  1  0
  7 13  1  0
  8  2  1  0
  9 14  1  6
 10  8  1  0
 11  9  1  0
 12 11  1  0
 13  6  1  0
  6 14  1  6
 15  3  1  0
 16  5  2  0
 17  8  2  0
 13 18  1  1
 19 10  2  0
  1 20  1  1
 21 15  2  0
 22  4  1  0
 23  7  1  0
 11 24  1  0
 25 15  1  0
 26 12  2  0
 11 27  1  1
 28 19  1  0
 30 26  1  0
 31 19  1  0
 32 18  1  0
 33 18  1  0
  2  9  1  0
  7  3  2  0
 10 12  1  0
 30 31  2  0
M  END
>  <ID>  (547) 


>  <MOLENAME>  (547) 
TETRACYCLINE HYDROCHLORIDE

>  <therap>  (547) 
antibacterial, antiamebic, antirickettsial

>  <ref>  (547) 
Toxicol Appl Pharmacol 18:185 (1971); Crit Rev Oral Biol Med 2:297 (1991)

>  <cas#>  (547) 
64-75-5, 60-54-8 [tetracycline]

>  <source>  (547) 
Streptomyces spp

>  <status>  (547) 
USP, INN, BAN, JAN

>  <tradename>  (547) 
ACHROMYCIN

>  <SMILES>  (547) 
CN(C)[C@@H]1C(O)=C(C(N)=O)C(=O)[C@@]2(O)C(O)=C3C(=O)c4c(O)cccc4[C@@](C)(O)[C@H]3C[C@@H]12

>  <standardized_failed>  (547) 
False

$$$$

     RDKit          2D

 16 17  0  0  0  0  0  0  0  0999 V2000
    5.4167   -4.8875    0.0000 C   0  0  0  0  0  0  0  0  0  0  0  0
    6.0292   -4.3417    0.0000 C   0  0  0  0  0  0  0  0  0  0  0  0
    6.8125   -4.6042    0.0000 C   0  0  0  0  0  0  0  0  0  0  0  0
    5.4917   -5.7125    0.0000 N   0  0  0  0  0  0  0  0  0  0  0  0
    4.6125   -4.7042    0.0000 N   0  0  0  0  0  0  0  0  0  0  0  0
    7.4292   -4.0667    0.0000 C   0  0  0  0  0  0  0  0  0  0  0  0
    2.8917   -4.1792    0.0000 Cl  0  0  0  0  0  0  0  0  0  0  0  0
    5.8667   -3.5292    0.0000 C   0  0  0  0  0  0  0  0  0  0  0  0
    4.7292   -6.0375    0.0000 C   0  0  0  0  0  0  0  0  0  0  0  0
    6.9667   -5.4125    0.0000 C   0  0  0  0  0  0  0  0  0  0  0  0
    4.1917   -5.4125    0.0000 C   0  0  0  0  0  0  0  0  0  0  0  0
    6.4917   -2.9917    0.0000 C   0  0  0  0  0  0  0  0  0  0  0  0
    7.2792   -3.2542    0.0000 C   0  0  0  0  0  0  0  0  0  0  0  0
    8.2042   -4.3292    0.0000 C   0  0  0  0  0  0  0  0  0  0  0  0
    7.7417   -5.6792    0.0000 C   0  0  0  0  0  0  0  0  0  0  0  0
    8.3625   -5.1375    0.0000 C   0  0  0  0  0  0  0  0  0  0  0  0
  2  1  1  0
  3  2  1  0
  4  1  2  0
  5  1  1  0
  6  3  2  0
  8  2  1  0
  9  4  1  0
 10  3  1  0
 11  5  1  0
 12  8  1  0
 13 12  1  0
 14  6  1  0
 15 10  2  0
 16 15  1  0
  9 11  1  0
  6 13  1  0
 16 14  2  0
M  END
>  <ID>  (548) 


>  <MOLENAME>  (548) 
TETRAHYDROZOLINE HYDROCHLORIDE

>  <therap>  (548) 
adrenergic agonist, nasal decongestant

>  <ref>  (548) 
Arch Otolaryngology 62:143 (1955); N Engl J Med 275:112 (1966); Br J Ophthalmol 92:149 (2008)

>  <cas#>  (548) 
522-48-5, 84-22-0 [tetrahydrozoline]

>  <source>  (548) 
synthetic

>  <status>  (548) 
USP, INN, BAN, JAN

>  <tradename>  (548) 
VISINE

>  <SMILES>  (548) 
c1cc2c(cc1)C(C1=NCCN1)CCC2

>  <standardized_failed>  (548) 
False

$$$$

     RDKit          2D

  9  8  0  0  0  0  0  0  0  0999 V2000
    6.4917   -7.6917    0.0000 C   0  0  0  0  0  0  0  0  0  0  0  0
    7.2042   -7.2792    0.0000 C   0  0  0  0  0  0  0  0  0  0  0  0
    5.3250   -7.6917    0.0000 C   0  0  0  0  0  0  0  0  0  0  0  0
    7.2042   -6.4500    0.0000 O   0  0  0  0  0  0  0  0  0  0  0  0
    6.4917   -8.5167    0.0000 N   0  0  0  0  0  0  0  0  0  0  0  0
    4.5000   -7.6917    0.0000 S   0  0  0  0  0  0  0  0  0  0  0  0
    7.9167   -7.6917    0.0000 O   0  0  0  0  0  0  0  0  0  0  0  0
    5.3375   -8.5417    0.0000 C   0  0  0  0  0  0  0  0  0  0  0  0
    5.3250   -6.8667    0.0000 C   0  0  0  0  0  0  0  0  0  0  0  0
  1  2  1  0
  3  1  1  0
  4  2  2  0
  1  5  1  0
  6  3  1  0
  7  2  1  0
  8  3  1  0
  9  3  1  0
M  END
>  <ID>  (549) 


>  <MOLENAME>  (549) 
PENICILLAMINE

>  <therap>  (549) 
chelating agent (Cu), antirheumatic

>  <ref>  (549) 
Br Med J 2:1423 (1976); Southern Med J 73:1053 (1980); Int J Morphol 25:717 (2007)

>  <cas#>  (549) 
52-67-5

>  <source>  (549) 
semisynthetic

>  <status>  (549) 
USP, INN, BAN, JAN

>  <tradename>  (549) 
CUPRIMINE

>  <SMILES>  (549) 
CC(C)(S)C(N)C(=O)O

>  <standardized_failed>  (549) 
False

$$$$

     RDKit          2D

 14 12  0  0  0  0  0  0  0  0999 V2000
    3.2292   -4.8917    0.0000 C   0  0  0  0  0  0  0  0  0  0  0  0
    3.9417   -5.3042    0.0000 C   0  0  0  0  0  0  0  0  0  0  0  0
    4.6542   -4.8917    0.0000 C   0  0  0  0  0  0  0  0  0  0  0  0
    2.5167   -5.3042    0.0000 C   0  0  0  0  0  0  0  0  0  0  0  0
    5.3667   -5.3042    0.0000 C   0  0  0  0  0  0  0  0  0  0  0  0
    1.8042   -4.8917    0.0000 O   0  0  0  0  0  0  0  0  0  0  0  0
    2.5167   -6.1292    0.0000 O   0  0  0  0  0  0  0  0  0  0  0  0
    3.2292   -4.0667    0.0000 O   0  0  0  0  0  0  0  0  0  0  0  0
    3.9417   -6.1292    0.0000 O   0  0  0  0  0  0  0  0  0  0  0  0
    4.6542   -4.0667    0.0000 O   0  0  0  0  0  0  0  0  0  0  0  0
    5.3667   -6.1292    0.0000 O   0  0  0  0  0  0  0  0  0  0  0  0
    0.0917   -5.1500    0.0000 Na  0  0  0  0  0 15  0  0  0  0  0  0
    6.7917   -5.3042    0.0000 O   0  0  0  0  0  0  0  0  0  0  0  0
    6.0792   -4.8917    0.0000 C   0  0  0  0  0  0  0  0  0  0  0  0
  2  1  1  0
  3  2  1  0
  4  1  1  0
  5  3  1  0
  6  4  1  0
  7  4  2  0
  1  8  1  6
  2  9  1  6
  3 10  1  6
  5 11  1  1
 13 14  1  0
 14  5  1  0
M  CHG  2   6  -1  12   1
M  END
>  <ID>  (550) 


>  <MOLENAME>  (550) 
SODIUM GLUCONATE

>  <therap>  (550) 
electrolyte replenisher

>  <ref>  (550) 
J. Nutr. (2004), 134(4), 940-944

>  <cas#>  (550) 
527-07-1

>  <source>  (550) 
widespread in nature

>  <status>  (550) 
USP

>  <tradename>  (550) 
nan

>  <SMILES>  (550) 
O=C([O-])[C@H](O)[C@@H](O)[C@H](O)[C@H](O)CO.[Na+]

>  <standardized_failed>  (550) 
False

$$$$

     RDKit          2D

 11 12  0  0  0  0  0  0  0  0999 V2000
    6.5125  -11.1625    0.0000 C   0  0  0  0  0  0  0  0  0  0  0  0
    5.8000  -11.5750    0.0000 N   0  0  0  0  0  0  0  0  0  0  0  0
    6.5125  -10.3375    0.0000 C   0  0  0  0  0  0  0  0  0  0  0  0
    5.0792  -10.3375    0.0000 N   0  0  0  0  0  0  0  0  0  0  0  0
    5.8000   -9.9250    0.0000 C   0  0  0  0  0  0  0  0  0  0  0  0
    5.0792  -11.1625    0.0000 C   0  0  0  0  0  0  0  0  0  0  0  0
    7.2917  -11.4167    0.0000 N   0  0  0  0  0  0  0  0  0  0  0  0
    7.2917  -10.0792    0.0000 N   0  0  0  0  0  0  0  0  0  0  0  0
    7.7792  -10.7417    0.0000 C   0  0  0  0  0  0  0  0  0  0  0  0
    5.8000   -9.1000    0.0000 S   0  0  0  0  0  0  0  0  0  0  0  0
    4.3625  -11.5750    0.0000 N   0  0  0  0  0  0  0  0  0  0  0  0
  2  1  1  0
  3  1  2  0
  4  5  1  0
  5  3  1  0
  6  2  2  0
  7  1  1  0
  8  3  1  0
  9  7  2  0
 10  5  2  0
 11  6  1  0
  8  9  1  0
  6  4  1  0
M  END
>  <ID>  (551) 


>  <MOLENAME>  (551) 
THIOGUANINE

>  <therap>  (551) 
antineoplastic, purine antimetabolite

>  <ref>  (551) 
JACS 77:1676 (1955); JAMA  200:619 (1967); Nucl Acids Res 31:1331 (2003)

>  <cas#>  (551) 
154-42-7, 5580-03-0 [hemihydrate]

>  <source>  (551) 
synthetic; NSC-752

>  <status>  (551) 
USP, INN, BAN

>  <tradename>  (551) 
TABLOID

>  <SMILES>  (551) 
Nc1nc2c([nH]cn2)c(=S)[nH]1

>  <standardized_failed>  (551) 
False

$$$$

     RDKit          2D

 26 28  0  0  0  0  0  0  0  0999 V2000
    5.5167   -5.7625    0.0000 N   0  0  0  0  0  0  0  0  0  0  0  0
    6.1667   -6.1417    0.0000 C   0  0  0  0  0  0  0  0  0  0  0  0
    5.5167   -7.2625    0.0000 S   0  0  0  0  0  0  0  0  0  0  0  0
    4.8750   -6.1375    0.0000 C   0  0  0  0  0  0  0  0  0  0  0  0
    6.1667   -6.8875    0.0000 C   0  0  0  0  0  0  0  0  0  0  0  0
    4.8750   -6.8875    0.0000 C   0  0  0  0  0  0  0  0  0  0  0  0
    5.5167   -5.0125    0.0000 C   0  0  0  0  0  0  0  0  0  0  0  0
    5.5167   -3.5125    0.0000 N   0  0  0  0  0  0  0  0  0  0  0  0
    6.8167   -5.7625    0.0000 C   0  0  0  0  0  0  0  0  0  0  0  0
    4.8750   -4.6417    0.0000 C   0  0  0  0  0  0  0  0  0  0  0  0
    4.8750   -3.8875    0.0000 C   0  0  0  0  0  0  0  0  0  0  0  0
    6.8167   -7.2625    0.0000 C   0  0  0  0  0  0  0  0  0  0  0  0
    7.4667   -6.1417    0.0000 C   0  0  0  0  0  0  0  0  0  0  0  0
    8.1167   -5.7625    0.0000 S   0  0  0  0  0  0  0  0  0  0  0  0
    7.4667   -6.8875    0.0000 C   0  0  0  0  0  0  0  0  0  0  0  0
    7.1042   -4.1167    0.0000 Cl  0  0  0  0  0  0  0  0  0  0  0  0
    6.1750   -3.9000    0.0000 C   0  0  0  0  0  0  0  0  0  0  0  0
    5.5167   -2.7625    0.0000 C   0  0  0  0  0  0  0  0  0  0  0  0
    4.2292   -5.7625    0.0000 C   0  0  0  0  0  0  0  0  0  0  0  0
    4.2292   -7.2625    0.0000 C   0  0  0  0  0  0  0  0  0  0  0  0
    4.2250   -3.5125    0.0000 C   0  0  0  0  0  0  0  0  0  0  0  0
    8.7667   -6.1375    0.0000 C   0  0  0  0  0  0  0  0  0  0  0  0
    4.8750   -2.3875    0.0000 C   0  0  0  0  0  0  0  0  0  0  0  0
    3.5792   -6.1375    0.0000 C   0  0  0  0  0  0  0  0  0  0  0  0
    3.5792   -6.8875    0.0000 C   0  0  0  0  0  0  0  0  0  0  0  0
    4.2250   -2.7625    0.0000 C   0  0  0  0  0  0  0  0  0  0  0  0
  2  1  1  0
  3  6  1  0
  4  1  1  0
  5  2  2  0
  6  4  2  0
  7  1  1  0
  8 11  1  0
  9  2  1  0
 10  7  1  0
 11 10  1  0
 12  5  1  0
 13  9  2  0
 14 13  1  0
 15 13  1  0
 17  8  1  0
 18  8  1  0
 19  4  1  0
 20  6  1  0
 21 11  1  0
 22 14  1  0
 23 26  1  0
 24 19  2  0
 25 24  1  0
 26 21  1  0
  5  3  1  0
 25 20  2  0
 15 12  2  0
 23 18  1  0
M  END
>  <ID>  (552) 


>  <MOLENAME>  (552) 
THIORIDAZINE HYDROCHLORIDE

>  <therap>  (552) 
antipsychotic

>  <ref>  (552) 
Toxicol Appl Pharmacol 18:185 (1971); Curr Ther Res 21:587 (1977)

>  <cas#>  (552) 
130-61-0, 50-52-2 [thioridazine]

>  <source>  (552) 
synthetic

>  <status>  (552) 
USP, INN, BAN

>  <tradename>  (552) 
MELLARIL

>  <SMILES>  (552) 
CSc1cc2c(cc1)Sc1c(cccc1)N2CCC1CCCCN1C

>  <standardized_failed>  (552) 
False

$$$$

     RDKit          2D

 30 33  0  0  0  0  0  0  0  0999 V2000
    7.8125  -11.3417    0.0000 S   0  0  0  0  0  0  0  0  0  0  0  0
    5.2125  -11.3417    0.0000 C   0  0  0  0  0  0  0  0  0  0  0  0
    5.8625  -11.7250    0.0000 C   0  0  0  0  0  0  0  0  0  0  0  0
    5.2125  -12.8417    0.0000 S   0  0  0  0  0  0  0  0  0  0  0  0
    7.1542  -11.7250    0.0000 C   0  0  0  0  0  0  0  0  0  0  0  0
    5.8625  -12.4667    0.0000 C   0  0  0  0  0  0  0  0  0  0  0  0
    4.5667  -11.7167    0.0000 C   0  0  0  0  0  0  0  0  0  0  0  0
    6.5042  -11.3417    0.0000 C   0  0  0  0  0  0  0  0  0  0  0  0
    4.5667  -12.4667    0.0000 C   0  0  0  0  0  0  0  0  0  0  0  0
    8.4667  -10.9625    0.0000 N   0  0  0  0  0  0  0  0  0  0  0  0
    8.1917  -12.0000    0.0000 O   0  0  0  0  0  0  0  0  0  0  0  0
    7.4292  -10.6875    0.0000 O   0  0  0  0  0  0  0  0  0  0  0  0
    5.2042   -9.0875    0.0000 N   0  0  0  0  0  0  0  0  0  0  0  0
    6.5042   -8.3375    0.0000 N   0  0  0  0  0  0  0  0  0  0  0  0
    5.2125  -10.5917    0.0000 C   0  0  0  0  0  0  0  0  0  0  0  0
    7.1542  -12.4667    0.0000 C   0  0  0  0  0  0  0  0  0  0  0  0
    6.5042  -12.8417    0.0000 C   0  0  0  0  0  0  0  0  0  0  0  0
    6.5042   -9.0875    0.0000 C   0  0  0  0  0  0  0  0  0  0  0  0
    5.8542   -7.9625    0.0000 C   0  0  0  0  0  0  0  0  0  0  0  0
    5.8542   -9.4625    0.0000 C   0  0  0  0  0  0  0  0  0  0  0  0
    5.2042   -8.3375    0.0000 C   0  0  0  0  0  0  0  0  0  0  0  0
    4.5625  -10.2167    0.0000 C   0  0  0  0  0  0  0  0  0  0  0  0
    4.5625   -9.4667    0.0000 C   0  0  0  0  0  0  0  0  0  0  0  0
    3.9167  -11.3417    0.0000 C   0  0  0  0  0  0  0  0  0  0  0  0
    3.9167  -12.8417    0.0000 C   0  0  0  0  0  0  0  0  0  0  0  0
    7.1542   -7.9542    0.0000 C   0  0  0  0  0  0  0  0  0  0  0  0
    8.4667  -10.2125    0.0000 C   0  0  0  0  0  0  0  0  0  0  0  0
    9.1167  -11.3375    0.0000 C   0  0  0  0  0  0  0  0  0  0  0  0
    3.2667  -11.7167    0.0000 C   0  0  0  0  0  0  0  0  0  0  0  0
    3.2667  -12.4667    0.0000 C   0  0  0  0  0  0  0  0  0  0  0  0
  2  3  1  0
  3  8  2  0
  4  6  1  0
  5  1  1  0
  6 17  2  0
  7  2  1  0
  8  5  1  0
  9  4  1  0
 10  1  1  0
 11  1  2  0
 12  1  2  0
 13 23  1  0
 14 19  1  0
 15  2  2  0
 16  5  2  0
 17 16  1  0
 18 20  1  0
 19 21  1  0
 20 13  1  0
 21 13  1  0
 22 15  1  0
 23 22  1  0
 24  7  2  0
 25  9  2  0
 26 14  1  0
 27 10  1  0
 28 10  1  0
 29 24  1  0
 30 25  1  0
  6  3  1  0
  7  9  1  0
 30 29  2  0
 14 18  1  0
M  END
>  <ID>  (553) 


>  <MOLENAME>  (553) 
THIOTHIXENE

>  <therap>  (553) 
antipsychotic

>  <ref>  (553) 
Psychopharmacologica 12:142 (1968); Anal Profiles Drug Subs 18:527 (1989)

>  <cas#>  (553) 
5591-45-7, 3313-26-6 [//Z//]

>  <source>  (553) 
synthetic; P-4657B

>  <status>  (553) 
USP, INN, BAN, JAN

>  <tradename>  (553) 
NAVANE

>  <SMILES>  (553) 
CN1CCN(CC/C=C2\c3ccccc3Sc3ccc(S(=O)(=O)N(C)C)cc23)CC1

>  <standardized_failed>  (553) 
False

$$$$

     RDKit          2D

 29 29  0  0  0  0  0  0  0  0999 V2000
    5.2792   -8.5917    0.0000 C   0  0  0  0  0  0  0  0  0  0  0  0
    6.0000   -9.0042    0.0000 C   0  0  0  0  0  0  0  0  0  0  0  0
    5.4542   -7.7875    0.0000 N   0  0  0  0  0  0  0  0  0  0  0  0
    6.6167   -8.4500    0.0000 N   0  0  0  0  0  0  0  0  0  0  0  0
    6.2750   -7.7042    0.0000 S   0  0  0  0  0  0  0  0  0  0  0  0
    4.5667   -9.0042    0.0000 N   0  0  0  0  0  0  0  0  0  0  0  0
    6.0792   -9.8292    0.0000 O   0  0  0  0  0  0  0  0  0  0  0  0
    8.7042   -9.7500    0.0000 C   0  0  0  0  0  0  0  0  0  0  0  0
    9.8750   -9.0750    0.0000 C   0  0  0  0  0  0  0  0  0  0  0  0
    9.2917  -10.0875    0.0000 C   0  0  0  0  0  0  0  0  0  0  0  0
    9.8750   -9.7500    0.0000 C   0  0  0  0  0  0  0  0  0  0  0  0
    7.7625  -12.1667    0.0000 N   0  0  0  0  0  0  0  0  0  0  0  0
    8.1292  -10.0875    0.0000 O   0  0  0  0  0  0  0  0  0  0  0  0
   10.4542   -8.7375    0.0000 O   0  0  0  0  0  0  0  0  0  0  0  0
    8.5167  -12.5042    0.0000 C   0  0  0  0  0  0  0  0  0  0  0  0
    3.1292   -9.8250    0.0000 O   0  0  0  0  0  0  0  0  0  0  0  0
    6.9167  -11.0000    0.0000 C   0  0  0  0  0  0  0  0  0  0  0  0
    6.8375  -10.1750    0.0000 C   0  0  0  0  0  0  0  0  0  0  0  0
    7.6792  -11.3417    0.0000 C   0  0  0  0  0  0  0  0  0  0  0  0
    8.7042   -9.0750    0.0000 O   0  0  0  0  0  0  0  0  0  0  0  0
    9.2917   -8.7375    0.0000 O   0  0  0  0  0  0  0  0  0  0  0  0
    3.8500   -8.5917    0.0000 C   0  0  0  0  0  0  0  0  0  0  0  0
    4.5667   -9.8292    0.0000 C   0  0  0  0  0  0  0  0  0  0  0  0
    6.2500  -11.4792    0.0000 O   0  0  0  0  0  0  0  0  0  0  0  0
    3.8417  -10.2417    0.0000 C   0  0  0  0  0  0  0  0  0  0  0  0
    3.1292   -9.0000    0.0000 C   0  0  0  0  0  0  0  0  0  0  0  0
    8.1750  -13.2667    0.0000 C   0  0  0  0  0  0  0  0  0  0  0  0
    8.8542  -11.7500    0.0000 C   0  0  0  0  0  0  0  0  0  0  0  0
    9.2750  -12.8500    0.0000 C   0  0  0  0  0  0  0  0  0  0  0  0
  2  1  1  0
  3  1  2  0
  4  2  2  0
  5  3  1  0
  6  1  1  0
  7  2  1  0
  9 11  1  0
 10  8  1  0
 11 10  2  0
 12 19  1  0
 13  8  2  0
 14  9  2  0
 15 12  1  0
 16 25  1  0
 17 18  1  0
 18  7  1  0
 19 17  1  0
 20  8  1  0
 21  9  1  0
 22  6  1  0
 23  6  1  0
 17 24  1  1
 25 23  1  0
 26 22  1  0
 27 15  1  0
 28 15  1  0
 29 15  1  0
  4  5  1  0
 26 16  1  0
M  END
>  <ID>  (554) 


>  <MOLENAME>  (554) 
TIMOLOL MALEATE

>  <therap>  (554) 
betaadrenergic blocker

>  <ref>  (554) 
Clin Pharmacol Ther 13:138, 232 (1972); Drugs 17:38 (1979); N Engl Med 304:801 (1981); 310:9 (1984)

>  <cas#>  (554) 
26921-17-5, 91524-16-2 [timolol]

>  <source>  (554) 
synthetic

>  <status>  (554) 
USP, JAN

>  <tradename>  (554) 
BLOCADREN

>  <SMILES>  (554) 
CC(C)(C)NC[C@@H](O)COc1nsnc1N1CCOCC1

>  <standardized_failed>  (554) 
False

$$$$

     RDKit          2D

 32 34  0  0  0  0  0  0  0  0999 V2000
    7.8125   -0.7417    0.0000 C   0  0  0  0  0  0  0  0  0  0  0  0
    7.4042    0.7958    0.0000 C   0  0  0  0  0  0  0  0  0  0  0  0
    6.1625    1.5083    0.0000 C   0  0  0  0  0  0  0  0  0  0  0  0
    8.5250   -1.1542    0.0000 C   0  0  0  0  0  0  0  0  0  0  0  0
    6.5750    0.7958    0.0000 C   0  0  0  0  0  0  0  0  0  0  0  0
    8.5250   -1.9792    0.0000 C   0  0  0  0  0  0  0  0  0  0  0  0
    7.0917   -1.1542    0.0000 O   0  0  0  0  0  0  0  0  0  0  0  0
    7.8125    0.0833    0.0000 O   0  0  0  0  0  0  0  0  0  0  0  0
    4.5000    1.5083    0.0000 C   0  0  0  0  0  0  0  0  0  0  0  0
    7.8125   -2.3917    0.0000 C   0  0  0  0  0  0  0  0  0  0  0  0
    5.3250    1.4958    0.0000 O   0  0  0  0  0  0  0  0  0  0  0  0
    4.0917    2.2333    0.0000 O   0  0  0  0  0  0  0  0  0  0  0  0
    7.0917   -1.9792    0.0000 C   0  0  0  0  0  0  0  0  0  0  0  0
    7.8167    1.5083    0.0000 C   0  0  0  0  0  0  0  0  0  0  0  0
    6.5750    2.2250    0.0000 C   0  0  0  0  0  0  0  0  0  0  0  0
    7.4042    2.2250    0.0000 C   0  0  0  0  0  0  0  0  0  0  0  0
    3.2667    2.2458    0.0000 C   0  0  0  0  0  0  0  0  0  0  0  0
    3.2500    0.8083    0.0000 C   0  0  0  0  0  0  0  0  0  0  0  0
    4.0792    0.7958    0.0000 C   0  0  0  0  0  0  0  0  0  0  0  0
    2.8417    1.5333    0.0000 C   0  0  0  0  0  0  0  0  0  0  0  0
    9.2417   -2.4042    0.0000 N   0  0  0  0  0  0  0  0  0  0  0  0
    9.2417   -0.7292    0.0000 O   0  0  0  0  0  0  0  0  0  0  0  0
    6.2667    0.0958    0.0000 O   0  0  0  0  0  0  0  0  0  0  0  0
    8.6417    1.5083    0.0000 N   0  0  0  0  0  0  0  0  0  0  0  0
    6.1542    2.9458    0.0000 N   0  0  0  0  0  0  0  0  0  0  0  0
    7.8125   -3.2167    0.0000 O   0  0  0  0  0  0  0  0  0  0  0  0
    4.4792    0.0750    0.0000 N   0  0  0  0  0  0  0  0  0  0  0  0
    2.0042    1.5375    0.0000 O   0  0  0  0  0  0  0  0  0  0  0  0
    6.3750   -2.4042    0.0000 C   0  0  0  0  0  0  0  0  0  0  0  0
    2.0542    2.9833    0.0000 N   0  0  0  0  0  0  0  0  0  0  0  0
    2.8750    2.9625    0.0000 C   0  0  0  0  0  0  0  0  0  0  0  0
    6.3792   -3.2292    0.0000 O   0  0  0  0  0  0  0  0  0  0  0  0
  2  8  1  6
  3  5  1  0
  4  1  1  0
  5  2  1  0
  6  4  1  0
  7  1  1  0
  1  8  1  6
  9 11  1  6
 10 13  1  0
  3 11  1  6
 12  9  1  0
 13  7  1  0
 14  2  1  0
 15 16  1  0
 16 14  1  0
 17 12  1  0
 18 19  1  0
 19  9  1  0
 20 18  1  0
  6 21  1  1
  4 22  1  6
  5 23  1  1
 14 24  1  1
 15 25  1  1
 10 26  1  6
 19 27  1  6
 20 28  1  6
 13 29  1  1
 30 31  1  0
 17 31  1  1
 32 29  1  0
 10  6  1  0
 15  3  1  0
 17 20  1  0
M  END
>  <ID>  (555) 


>  <MOLENAME>  (555) 
TOBRAMYCIN

>  <therap>  (555) 
antibacterial, inhibits protein synthesis

>  <ref>  (555) 
Toxicol Appl Pharmacol 22:332 (1972); Curr Ther Res 59:420 (1998)

>  <cas#>  (555) 
32986-56-4

>  <source>  (555) 
Streptomyces spp

>  <status>  (555) 
USP, INN, BAN, JAN

>  <tradename>  (555) 
TOBI

>  <SMILES>  (555) 
NC[C@H]1O[C@H](O[C@@H]2[C@@H](N)C[C@@H](N)[C@H](O[C@H]3O[C@H](CO)[C@@H](O)[C@H](N)[C@H]3O)[C@H]2O)[C@H](N)C[C@@H]1O

>  <standardized_failed>  (555) 
False

$$$$

     RDKit          2D

 13 13  0  0  0  0  0  0  0  0999 V2000
    5.5125   -4.3750    0.0000 C   0  0  0  0  0  0  0  0  0  0  0  0
    5.2792   -5.0875    0.0000 N   0  0  0  0  0  0  0  0  0  0  0  0
    4.9042   -3.9375    0.0000 N   0  0  0  0  0  0  0  0  0  0  0  0
    6.2250   -4.1292    0.0000 C   0  0  0  0  0  0  0  0  0  0  0  0
    5.4875   -2.9917    0.0000 Cl  0  0  0  0  0  0  0  0  0  0  0  0
    6.7792   -4.6417    0.0000 C   0  0  0  0  0  0  0  0  0  0  0  0
    4.5292   -5.0875    0.0000 C   0  0  0  0  0  0  0  0  0  0  0  0
    4.3000   -4.3750    0.0000 C   0  0  0  0  0  0  0  0  0  0  0  0
    6.6250   -5.3750    0.0000 C   0  0  0  0  0  0  0  0  0  0  0  0
    7.4917   -4.4125    0.0000 C   0  0  0  0  0  0  0  0  0  0  0  0
    8.0500   -4.9125    0.0000 C   0  0  0  0  0  0  0  0  0  0  0  0
    7.1792   -5.8792    0.0000 C   0  0  0  0  0  0  0  0  0  0  0  0
    7.9000   -5.6500    0.0000 C   0  0  0  0  0  0  0  0  0  0  0  0
  2  1  2  0
  3  1  1  0
  4  1  1  0
  6  4  1  0
  7  2  1  0
  8  3  1  0
  9  6  2  0
 10  6  1  0
 11 10  2  0
 12  9  1  0
 13 12  2  0
  7  8  1  0
 11 13  1  0
M  END
>  <ID>  (556) 


>  <MOLENAME>  (556) 
TOLAZOLINE HYDROCHLORIDE

>  <therap>  (556) 
adrenergic blocker

>  <ref>  (556) 
Clin Perinatol 11:703 (1984)

>  <cas#>  (556) 
59-97-2, 59-98-3 [tolazoline]

>  <source>  (556) 
synthetic

>  <status>  (556) 
USP, INN, BAN, JAN

>  <tradename>  (556) 
PRISCOLINE

>  <SMILES>  (556) 
c1ccc(CC2=NCCN2)cc1

>  <standardized_failed>  (556) 
False

$$$$

     RDKit          2D

 18 18  0  0  0  0  0  0  0  0999 V2000
    3.1125   -2.7417    0.0000 S   0  0  0  0  0  0  0  0  0  0  0  0
    3.8625   -2.7417    0.0000 N   0  0  0  0  0  0  0  0  0  0  0  0
    4.2375   -2.0917    0.0000 C   0  0  0  0  0  0  0  0  0  0  0  0
    2.3625   -2.7417    0.0000 C   0  0  0  0  0  0  0  0  0  0  0  0
    3.1125   -1.9917    0.0000 O   0  0  0  0  0  0  0  0  0  0  0  0
    3.1125   -3.4917    0.0000 O   0  0  0  0  0  0  0  0  0  0  0  0
    3.8625   -1.4500    0.0000 O   0  0  0  0  0  0  0  0  0  0  0  0
    4.9875   -2.0917    0.0000 N   0  0  0  0  0  0  0  0  0  0  0  0
    1.9875   -3.3875    0.0000 C   0  0  0  0  0  0  0  0  0  0  0  0
    1.9875   -2.0917    0.0000 C   0  0  0  0  0  0  0  0  0  0  0  0
    1.2375   -3.3875    0.0000 C   0  0  0  0  0  0  0  0  0  0  0  0
    1.2375   -2.0917    0.0000 C   0  0  0  0  0  0  0  0  0  0  0  0
    0.8625   -2.7417    0.0000 C   0  0  0  0  0  0  0  0  0  0  0  0
    5.3625   -1.4500    0.0000 C   0  0  0  0  0  0  0  0  0  0  0  0
    0.1125   -2.7417    0.0000 C   0  0  0  0  0  0  0  0  0  0  0  0
    6.1125   -1.4500    0.0000 C   0  0  0  0  0  0  0  0  0  0  0  0
    6.4875   -0.8042    0.0000 C   0  0  0  0  0  0  0  0  0  0  0  0
    6.1042   -0.1542    0.0000 C   0  0  0  0  0  0  0  0  0  0  0  0
  2  1  1  0
  3  2  1  0
  4  1  1  0
  5  1  2  0
  6  1  2  0
  7  3  2  0
  8  3  1  0
  9  4  2  0
 10  4  1  0
 11  9  1  0
 12 10  2  0
 13 12  1  0
 14  8  1  0
 15 13  1  0
 16 14  1  0
 17 16  1  0
 18 17  1  0
 11 13  2  0
M  END
>  <ID>  (557) 


>  <MOLENAME>  (557) 
TOLBUTAMIDE

>  <therap>  (557) 
antidiabetic

>  <ref>  (557) 
Naturvissenschaften 43:93 (1956); Anal Profiles Drug Subs 3:513 (1974)

>  <cas#>  (557) 
64-77-7

>  <source>  (557) 
synthetic; D-860, U-2043

>  <status>  (557) 
USP, INN, BAN, JAN

>  <tradename>  (557) 
ORINASE

>  <SMILES>  (557) 
CCCCNC(=O)NS(=O)(=O)c1ccc(C)cc1

>  <standardized_failed>  (557) 
False

$$$$

     RDKit          2D

 15 15  0  0  0  0  0  0  0  0999 V2000
   11.2792   -3.8375    0.0000 S   0  0  0  0  0  0  0  0  0  0  0  0
    7.4792   -5.3000    0.0000 C   0  0  0  0  0  0  0  0  0  0  0  0
    6.7542   -5.1042    0.0000 C   0  0  0  0  0  0  0  0  0  0  0  0
    7.2792   -4.5792    0.0000 C   0  0  0  0  0  0  0  0  0  0  0  0
   10.6042   -3.8292    0.0000 O   0  0  0  0  0  0  0  0  0  0  0  0
   11.2750   -3.1542    0.0000 O   0  0  0  0  0  0  0  0  0  0  0  0
    8.1917   -5.4875    0.0000 C   0  0  0  0  0  0  0  0  0  0  0  0
   11.2750   -4.5042    0.0000 O   0  0  0  0  0  0  0  0  0  0  0  0
   11.9500   -3.8375    0.0000 O   0  0  0  0  0  0  0  0  0  0  0  0
    7.4667   -3.8500    0.0000 N   0  0  0  0  0  0  0  0  0  0  0  0
    8.3917   -6.2042    0.0000 C   0  0  0  0  0  0  0  0  0  0  0  0
    8.7167   -4.9542    0.0000 C   0  0  0  0  0  0  0  0  0  0  0  0
    9.4417   -5.1542    0.0000 C   0  0  0  0  0  0  0  0  0  0  0  0
    9.1125   -6.4000    0.0000 C   0  0  0  0  0  0  0  0  0  0  0  0
    9.6375   -5.8667    0.0000 C   0  0  0  0  0  0  0  0  0  0  0  0
  2  3  1  6
  4  2  1  0
  5  1  2  0
  6  1  2  0
  2  7  1  0
  8  1  1  0
  9  1  1  0
 10  4  1  0
 11  7  2  0
 12  7  1  0
 13 12  2  0
 14 11  1  0
 15 13  1  0
  4  3  1  0
 14 15  2  0
M  END
>  <ID>  (558) 


>  <MOLENAME>  (558) 
TRANYLCYPROMINE SULFATE

>  <therap>  (558) 
antidepressant, MAO inhibitor

>  <ref>  (558) 
Arch Pharmacol Res 10: 50 (1987)

>  <cas#>  (558) 
13492-01-8, 7081-36-9 [replaced], 155-09-9 [tranylcypromine]

>  <source>  (558) 
synthetic

>  <status>  (558) 
USP-XXI, INN, BAN

>  <tradename>  (558) 
PARNATE

>  <SMILES>  (558) 
NC1C[C@H]1c1ccccc1

>  <standardized_failed>  (558) 
False

$$$$

     RDKit          2D

 15 14  0  0  0  0  0  0  0  0999 V2000
    3.0417   -3.4625    0.0000 C   0  0  0  0  0  0  0  0  0  0  0  0
    4.8917   -0.9292    0.0000 C   0  0  0  0  0  0  0  0  0  0  0  0
    2.3917   -0.8375    0.0000 C   0  0  0  0  0  0  0  0  0  0  0  0
    3.6875   -3.0875    0.0000 O   0  0  0  0  0  0  0  0  0  0  0  0
    3.0417   -4.2125    0.0000 O   0  0  0  0  0  0  0  0  0  0  0  0
    4.8917   -0.2417    0.0000 O   0  0  0  0  0  0  0  0  0  0  0  0
    1.7417   -1.2125    0.0000 O   0  0  0  0  0  0  0  0  0  0  0  0
    4.3292   -1.2125    0.0000 O   0  0  0  0  0  0  0  0  0  0  0  0
    3.0375   -1.2125    0.0000 O   0  0  0  0  0  0  0  0  0  0  0  0
    3.6875   -2.3375    0.0000 C   0  0  0  0  0  0  0  0  0  0  0  0
    3.0375   -1.9625    0.0000 C   0  0  0  0  0  0  0  0  0  0  0  0
    4.3292   -1.9625    0.0000 C   0  0  0  0  0  0  0  0  0  0  0  0
    2.3917   -3.0875    0.0000 C   0  0  0  0  0  0  0  0  0  0  0  0
    5.4167   -1.1792    0.0000 C   0  0  0  0  0  0  0  0  0  0  0  0
    2.3917   -0.0875    0.0000 C   0  0  0  0  0  0  0  0  0  0  0  0
  2  8  1  0
  3  9  1  0
  4  1  1  0
  5  1  2  0
  6  2  2  0
  7  3  2  0
  8 12  1  0
  9 11  1  0
 10  4  1  0
 11 10  1  0
 12 10  1  0
 13  1  1  0
 14  2  1  0
 15  3  1  0
M  END
>  <ID>  (559) 


>  <MOLENAME>  (559) 
TRIACETIN

>  <therap>  (559) 
antifungal (topical)

>  <ref>  (559) 
Acta Physiol Scand 40:338 (1957)

>  <cas#>  (559) 
102-76-1

>  <source>  (559) 
synthetic

>  <status>  (559) 
USP, INN, BAN

>  <tradename>  (559) 
ENZACTIN

>  <SMILES>  (559) 
CC(=O)OCC(COC(C)=O)OC(C)=O

>  <standardized_failed>  (559) 
False

$$$$

     RDKit          2D

 28 31  0  0  0  0  0  0  0  0999 V2000
    7.3000   -9.9500    0.0000 C   0  0  0  0  0  0  0  0  0  0  0  0
    5.8667  -10.7792    0.0000 C   0  0  0  0  0  0  0  0  0  0  0  0
    8.0792   -9.6917    0.0000 C   0  0  0  0  0  0  0  0  0  0  0  0
    5.1542  -11.1917    0.0000 C   0  0  0  0  0  0  0  0  0  0  0  0
    7.3000  -10.7792    0.0000 C   0  0  0  0  0  0  0  0  0  0  0  0
    6.5792  -11.1917    0.0000 C   0  0  0  0  0  0  0  0  0  0  0  0
    5.1542  -12.0167    0.0000 C   0  0  0  0  0  0  0  0  0  0  0  0
    5.8667   -9.9500    0.0000 C   0  0  0  0  0  0  0  0  0  0  0  0
    8.5667  -10.3625    0.0000 C   0  0  0  0  0  0  0  0  0  0  0  0
    6.5792   -9.5375    0.0000 C   0  0  0  0  0  0  0  0  0  0  0  0
    4.4417  -10.7792    0.0000 C   0  0  0  0  0  0  0  0  0  0  0  0
    8.0792  -11.0292    0.0000 C   0  0  0  0  0  0  0  0  0  0  0  0
    4.4417  -12.4292    0.0000 C   0  0  0  0  0  0  0  0  0  0  0  0
    8.4167   -8.9417    0.0000 C   0  0  0  0  0  0  0  0  0  0  0  0
    6.5792  -12.0167    0.0000 C   0  0  0  0  0  0  0  0  0  0  0  0
    3.7250  -11.1917    0.0000 C   0  0  0  0  0  0  0  0  0  0  0  0
    3.7250  -12.0167    0.0000 C   0  0  0  0  0  0  0  0  0  0  0  0
    5.8667  -12.4292    0.0000 C   0  0  0  0  0  0  0  0  0  0  0  0
    5.8667  -11.6042    0.0000 F   0  0  0  0  0  0  0  0  0  0  0  0
    7.9292   -8.2667    0.0000 O   0  0  0  0  0  0  0  0  0  0  0  0
    9.0750   -9.6500    0.0000 O   0  0  0  0  0  0  0  0  0  0  0  0
    3.0042  -12.4417    0.0000 O   0  0  0  0  0  0  0  0  0  0  0  0
    7.2917   -9.1250    0.0000 C   0  0  0  0  0  0  0  0  0  0  0  0
    5.1417   -9.5250    0.0000 O   0  0  0  0  0  0  0  0  0  0  0  0
    9.3917  -10.3542    0.0000 O   0  0  0  0  0  0  0  0  0  0  0  0
    5.1542  -10.3625    0.0000 C   0  0  0  0  0  0  0  0  0  0  0  0
    9.2417   -8.8542    0.0000 C   0  0  0  0  0  0  0  0  0  0  0  0
    9.5417   -8.0875    0.0000 O   0  0  0  0  0  0  0  0  0  0  0  0
  2  8  1  0
  3  1  1  0
  4  2  1  0
  5  1  1  0
  6  5  1  0
  7  4  1  0
  8 10  1  0
  9  3  1  0
 10  1  1  0
 11  4  1  0
 12  5  1  0
 13  7  2  0
  3 14  1  0
 15  6  1  0
 16 11  2  0
 17 16  1  0
 18 15  1  0
  2 19  1  6
 20 14  2  0
  3 21  1  6
 22 17  2  0
  1 23  1  1
  8 24  1  1
  9 25  1  6
  4 26  1  1
 27 14  1  0
 28 27  1  0
  9 12  1  0
  2  6  1  0
 18  7  1  0
 13 17  1  0
M  END
>  <ID>  (560) 


>  <MOLENAME>  (560) 
TRIAMCINOLONE

>  <therap>  (560) 
glucocorticoid

>  <ref>  (560) 
Anal Profiles Drug Subs 1:367 (1972)

>  <cas#>  (560) 
124-94-7

>  <source>  (560) 
semisynthetic

>  <status>  (560) 
USP, INN, BAN, JAN

>  <tradename>  (560) 
ARISTOCORT

>  <SMILES>  (560) 
C[C@]12C[C@H](O)[C@@]3(F)C(CCC4=CC(=O)C=C[C@@]43C)C1C[C@@H](O)[C@]2(O)C(=O)CO

>  <standardized_failed>  (560) 
False

$$$$

     RDKit          2D

 31 35  0  0  0  0  0  0  0  0999 V2000
    7.5542   -9.7417    0.0000 C   0  0  0  0  0  0  0  0  0  0  0  0
    6.7750   -9.9917    0.0000 C   0  0  0  0  0  0  0  0  0  0  0  0
    5.3417  -10.8250    0.0000 C   0  0  0  0  0  0  0  0  0  0  0  0
    4.6292  -11.2375    0.0000 C   0  0  0  0  0  0  0  0  0  0  0  0
    6.7750  -10.8250    0.0000 C   0  0  0  0  0  0  0  0  0  0  0  0
    6.0542  -11.2375    0.0000 C   0  0  0  0  0  0  0  0  0  0  0  0
    8.0417  -10.4042    0.0000 C   0  0  0  0  0  0  0  0  0  0  0  0
    4.6292  -12.0667    0.0000 C   0  0  0  0  0  0  0  0  0  0  0  0
    8.0417   -9.0750    0.0000 O   0  0  0  0  0  0  0  0  0  0  0  0
    5.3417   -9.9917    0.0000 C   0  0  0  0  0  0  0  0  0  0  0  0
    6.0542   -9.5792    0.0000 C   0  0  0  0  0  0  0  0  0  0  0  0
    8.8292   -9.3375    0.0000 C   0  0  0  0  0  0  0  0  0  0  0  0
    8.8292  -10.1500    0.0000 O   0  0  0  0  0  0  0  0  0  0  0  0
    3.9167  -10.8250    0.0000 C   0  0  0  0  0  0  0  0  0  0  0  0
    7.5542  -11.0792    0.0000 C   0  0  0  0  0  0  0  0  0  0  0  0
    7.3417   -8.9417    0.0000 C   0  0  0  0  0  0  0  0  0  0  0  0
    3.9167  -12.4792    0.0000 C   0  0  0  0  0  0  0  0  0  0  0  0
    6.0542  -12.0667    0.0000 C   0  0  0  0  0  0  0  0  0  0  0  0
    3.2000  -11.2375    0.0000 C   0  0  0  0  0  0  0  0  0  0  0  0
    3.2000  -12.0667    0.0000 C   0  0  0  0  0  0  0  0  0  0  0  0
    5.3417  -12.4792    0.0000 C   0  0  0  0  0  0  0  0  0  0  0  0
    5.3417  -11.6542    0.0000 F   0  0  0  0  0  0  0  0  0  0  0  0
    6.5542   -8.7292    0.0000 O   0  0  0  0  0  0  0  0  0  0  0  0
    2.4792  -12.4875    0.0000 O   0  0  0  0  0  0  0  0  0  0  0  0
    6.7667   -9.1667    0.0000 C   0  0  0  0  0  0  0  0  0  0  0  0
    4.6167   -9.5667    0.0000 O   0  0  0  0  0  0  0  0  0  0  0  0
    4.6292  -10.4042    0.0000 C   0  0  0  0  0  0  0  0  0  0  0  0
    7.9250   -8.3542    0.0000 C   0  0  0  0  0  0  0  0  0  0  0  0
    9.6542   -9.3417    0.0000 C   0  0  0  0  0  0  0  0  0  0  0  0
    8.6167   -8.5417    0.0000 C   0  0  0  0  0  0  0  0  0  0  0  0
    7.6667   -7.5250    0.0000 O   0  0  0  0  0  0  0  0  0  0  0  0
  2  1  1  0
  3 10  1  0
  4  3  1  0
  5  2  1  0
  6  5  1  0
  7  1  1  0
  8  4  1  0
  1  9  1  0
 10 11  1  0
 11  2  1  0
 12  9  1  0
  7 13  1  0
 14  4  1  0
  7 15  1  6
  1 16  1  1
 17  8  2  0
 18  6  1  0
 19 14  2  0
 20 19  1  0
 21 18  1  0
  3 22  1  6
 23 16  2  0
 24 20  2  0
  2 25  1  1
 10 26  1  1
  4 27  1  1
 28 16  1  0
 29 12  1  0
 30 12  1  0
 31 28  1  0
  5 15  1  0
 12 13  1  0
  6  3  1  0
  8 21  1  0
 17 20  1  0
M  END
>  <ID>  (561) 


>  <MOLENAME>  (561) 
TRIAMCINOLONE ACETONIDE

>  <therap>  (561) 
antiinflammatory

>  <ref>  (561) 
Anal Profiles Drug Subs 1:397 (1972); 11:615 (1982)

>  <cas#>  (561) 
76-25-5

>  <source>  (561) 
semisynthetic

>  <status>  (561) 
USP, INN, BAN, JAN

>  <tradename>  (561) 
NASACORT

>  <SMILES>  (561) 
CC1(C)O[C@@H]2CC3C4CCC5=CC(=O)C=C[C@]5(C)[C@@]4(F)[C@@H](O)C[C@]3(C)[C@]2(C(=O)CO)O1

>  <standardized_failed>  (561) 
False

$$$$

     RDKit          2D

 34 37  0  0  0  0  0  0  0  0999 V2000
    6.6917  -10.8750    0.0000 C   0  0  0  0  0  0  0  0  0  0  0  0
    5.2542  -11.7042    0.0000 C   0  0  0  0  0  0  0  0  0  0  0  0
    7.4750  -10.6167    0.0000 C   0  0  0  0  0  0  0  0  0  0  0  0
    4.5417  -12.1167    0.0000 C   0  0  0  0  0  0  0  0  0  0  0  0
    6.6917  -11.7042    0.0000 C   0  0  0  0  0  0  0  0  0  0  0  0
    5.9750  -12.1167    0.0000 C   0  0  0  0  0  0  0  0  0  0  0  0
    4.5417  -12.9417    0.0000 C   0  0  0  0  0  0  0  0  0  0  0  0
    7.9542  -11.2875    0.0000 C   0  0  0  0  0  0  0  0  0  0  0  0
    5.2542  -10.8750    0.0000 C   0  0  0  0  0  0  0  0  0  0  0  0
    5.9667  -10.4625    0.0000 C   0  0  0  0  0  0  0  0  0  0  0  0
    3.8292  -11.7042    0.0000 C   0  0  0  0  0  0  0  0  0  0  0  0
    7.4750  -11.9542    0.0000 C   0  0  0  0  0  0  0  0  0  0  0  0
    7.8125   -9.8667    0.0000 C   0  0  0  0  0  0  0  0  0  0  0  0
    3.8292  -13.3542    0.0000 C   0  0  0  0  0  0  0  0  0  0  0  0
    5.9750  -12.9417    0.0000 C   0  0  0  0  0  0  0  0  0  0  0  0
    8.7792  -11.2792    0.0000 O   0  0  0  0  0  0  0  0  0  0  0  0
    3.1167  -12.1167    0.0000 C   0  0  0  0  0  0  0  0  0  0  0  0
    3.1167  -12.9417    0.0000 C   0  0  0  0  0  0  0  0  0  0  0  0
    9.1917  -11.9917    0.0000 C   0  0  0  0  0  0  0  0  0  0  0  0
    5.2542  -13.3542    0.0000 C   0  0  0  0  0  0  0  0  0  0  0  0
    9.7792   -8.8625    0.0000 C   0  0  0  0  0  0  0  0  0  0  0  0
    5.2542  -12.5292    0.0000 F   0  0  0  0  0  0  0  0  0  0  0  0
    8.6292   -9.7792    0.0000 C   0  0  0  0  0  0  0  0  0  0  0  0
    7.3250   -9.1917    0.0000 O   0  0  0  0  0  0  0  0  0  0  0  0
    8.9625   -8.9500    0.0000 O   0  0  0  0  0  0  0  0  0  0  0  0
    8.7875  -12.7042    0.0000 O   0  0  0  0  0  0  0  0  0  0  0  0
    8.2917  -10.5292    0.0000 O   0  0  0  0  0  0  0  0  0  0  0  0
   10.1167   -8.1042    0.0000 O   0  0  0  0  0  0  0  0  0  0  0  0
    2.3917  -13.3667    0.0000 O   0  0  0  0  0  0  0  0  0  0  0  0
    6.6875  -10.0500    0.0000 C   0  0  0  0  0  0  0  0  0  0  0  0
    4.5375  -10.4500    0.0000 O   0  0  0  0  0  0  0  0  0  0  0  0
    4.5417  -11.2875    0.0000 C   0  0  0  0  0  0  0  0  0  0  0  0
   10.0167  -11.9875    0.0000 C   0  0  0  0  0  0  0  0  0  0  0  0
   10.2667   -9.5292    0.0000 C   0  0  0  0  0  0  0  0  0  0  0  0
  2  9  1  0
  3  1  1  0
  4  2  1  0
  5  1  1  0
  6  5  1  0
  7  4  1  0
  8  3  1  0
  9 10  1  0
 10  1  1  0
 11  4  1  0
 12  5  1  0
  3 13  1  0
 14  7  2  0
 15  6  1  0
  8 16  1  6
 17 11  2  0
 18 17  1  0
 19 16  1  0
 20 15  1  0
 21 25  1  0
  2 22  1  6
 23 13  1  0
 24 13  2  0
 25 23  1  0
 26 19  2  0
  3 27  1  6
 28 21  2  0
 29 18  2  0
  1 30  1  1
  9 31  1  1
  4 32  1  1
 33 19  1  0
 34 21  1  0
 12  8  1  0
  6  2  1  0
  7 20  1  0
 14 18  1  0
M  END
>  <ID>  (562) 


>  <MOLENAME>  (562) 
TRIAMCINOLONE DIACETATE

>  <therap>  (562) 
antiinflammatory

>  <ref>  (562) 
Anal Profiles Drug Subs 1:367, 423 (1972)

>  <cas#>  (562) 
67-78-7

>  <source>  (562) 
semisynthetic

>  <status>  (562) 
USP, JAN

>  <tradename>  (562) 
KENACORT

>  <SMILES>  (562) 
CC(=O)OCC(=O)[C@@]1(O)[C@H](OC(C)=O)CC2C3CCC4=CC(=O)C=C[C@]4(C)[C@@]3(F)[C@@H](O)C[C@@]21C

>  <standardized_failed>  (562) 
False

$$$$

     RDKit          2D

 19 21  0  0  0  0  0  0  0  0999 V2000
    3.7542   -1.3292    0.0000 C   0  0  0  0  0  0  0  0  0  0  0  0
    3.7542   -2.0875    0.0000 C   0  0  0  0  0  0  0  0  0  0  0  0
    4.4125   -0.9542    0.0000 N   0  0  0  0  0  0  0  0  0  0  0  0
    5.0667   -2.0875    0.0000 N   0  0  0  0  0  0  0  0  0  0  0  0
    3.1042   -0.9542    0.0000 N   0  0  0  0  0  0  0  0  0  0  0  0
    3.1042   -2.4625    0.0000 N   0  0  0  0  0  0  0  0  0  0  0  0
    4.4125   -2.4625    0.0000 C   0  0  0  0  0  0  0  0  0  0  0  0
    5.0667   -1.3292    0.0000 C   0  0  0  0  0  0  0  0  0  0  0  0
    2.4542   -1.3292    0.0000 C   0  0  0  0  0  0  0  0  0  0  0  0
    2.4542   -2.0875    0.0000 C   0  0  0  0  0  0  0  0  0  0  0  0
    1.8042   -2.4625    0.0000 C   0  0  0  0  0  0  0  0  0  0  0  0
    4.4125   -3.2125    0.0000 N   0  0  0  0  0  0  0  0  0  0  0  0
    1.8042   -0.9542    0.0000 N   0  0  0  0  0  0  0  0  0  0  0  0
    5.7167   -0.9542    0.0000 N   0  0  0  0  0  0  0  0  0  0  0  0
    1.1542   -2.0875    0.0000 C   0  0  0  0  0  0  0  0  0  0  0  0
    1.8042   -3.2125    0.0000 C   0  0  0  0  0  0  0  0  0  0  0  0
    1.1542   -3.5875    0.0000 C   0  0  0  0  0  0  0  0  0  0  0  0
    0.5042   -2.4625    0.0000 C   0  0  0  0  0  0  0  0  0  0  0  0
    0.5042   -3.2125    0.0000 C   0  0  0  0  0  0  0  0  0  0  0  0
  2  1  1  0
  3  1  2  0
  4  8  2  0
  5  1  1  0
  6  2  1  0
  7  2  2  0
  8  3  1  0
  9  5  2  0
 10  9  1  0
 11 10  1  0
 12  7  1  0
 13  9  1  0
 14  8  1  0
 15 11  2  0
 16 11  1  0
 17 16  2  0
 18 15  1  0
 19 17  1  0
  4  7  1  0
 10  6  2  0
 19 18  2  0
M  END
>  <ID>  (563) 


>  <MOLENAME>  (563) 
TRIAMTERENE

>  <therap>  (563) 
diuretic

>  <ref>  (563) 
Anal Profiles Drug Subs Excip 23:571 (1994)

>  <cas#>  (563) 
396-01-0

>  <source>  (563) 
semisynthetic; SK&F-8542

>  <status>  (563) 
USP, INN, BAN, JAN

>  <tradename>  (563) 
DYRENIUM

>  <SMILES>  (563) 
Nc1nc(N)c2nc(-c3ccccc3)c(N)nc2n1

>  <standardized_failed>  (563) 
False

$$$$

     RDKit          2D

 20 21  0  0  0  0  0  0  0  0999 V2000
    6.8875   -9.6542    0.0000 S   0  0  0  0  0  0  0  0  0  0  0  0
    7.5375  -10.0292    0.0000 N   0  0  0  0  0  0  0  0  0  0  0  0
    6.2292  -10.0292    0.0000 C   0  0  0  0  0  0  0  0  0  0  0  0
    4.2750   -9.6542    0.0000 S   0  0  0  0  0  0  0  0  0  0  0  0
    7.5375  -10.7792    0.0000 C   0  0  0  0  0  0  0  0  0  0  0  0
    4.9292  -10.0292    0.0000 C   0  0  0  0  0  0  0  0  0  0  0  0
    6.2292  -10.7792    0.0000 C   0  0  0  0  0  0  0  0  0  0  0  0
    6.8875  -11.1542    0.0000 N   0  0  0  0  0  0  0  0  0  0  0  0
    5.5750   -9.6542    0.0000 C   0  0  0  0  0  0  0  0  0  0  0  0
    4.9292  -10.7792    0.0000 C   0  0  0  0  0  0  0  0  0  0  0  0
    5.5750  -11.1542    0.0000 C   0  0  0  0  0  0  0  0  0  0  0  0
    7.5375   -9.2792    0.0000 O   0  0  0  0  0  0  0  0  0  0  0  0
    6.2375   -9.2792    0.0000 O   0  0  0  0  0  0  0  0  0  0  0  0
    8.1875  -11.1542    0.0000 C   0  0  0  0  0  0  0  0  0  0  0  0
    4.2750   -8.9042    0.0000 O   0  0  0  0  0  0  0  0  0  0  0  0
    3.6292  -10.0292    0.0000 O   0  0  0  0  0  0  0  0  0  0  0  0
    3.4292   -9.1792    0.0000 N   0  0  0  0  0  0  0  0  0  0  0  0
    4.2792  -11.1542    0.0000 Cl  0  0  0  0  0  0  0  0  0  0  0  0
    8.8375  -10.7792    0.0000 Cl  0  0  0  0  0  0  0  0  0  0  0  0
    8.1875  -11.9042    0.0000 Cl  0  0  0  0  0  0  0  0  0  0  0  0
  2  1  1  0
  3  1  1  0
  4  6  1  0
  5  2  1  0
  6  9  2  0
  7  3  2  0
  8  7  1  0
  9  3  1  0
 10  6  1  0
 11  7  1  0
 12  1  2  0
 13  1  2  0
 14  5  1  0
 15  4  2  0
 16  4  2  0
 17  4  1  0
 18 10  1  0
 19 14  1  0
 20 14  1  0
 10 11  2  0
  5  8  1  0
M  END
>  <ID>  (564) 


>  <MOLENAME>  (564) 
TRICHLORMETHIAZIDE

>  <therap>  (564) 
diuretic, antihypertensive

>  <ref>  (564) 
Toxicol Appl Pharmacol 18:185 (1971)

>  <cas#>  (564) 
133-67-5

>  <source>  (564) 
synthetic

>  <status>  (564) 
USP, INN, JAN

>  <tradename>  (564) 
METAHYDRIN

>  <SMILES>  (564) 
NS(=O)(=O)c1cc2c(cc1Cl)NC(C(Cl)Cl)NS2(=O)=O

>  <standardized_failed>  (564) 
False

$$$$

     RDKit          2D

 30 31  0  0  0  0  0  0  0  0999 V2000
    6.1667   -5.7625    0.0000 N   0  0  0  0  0  0  0  0  0  0  0  0
    6.8167   -6.1375    0.0000 C   0  0  0  0  0  0  0  0  0  0  0  0
    6.1667   -7.2625    0.0000 S   0  0  0  0  0  0  0  0  0  0  0  0
    8.7667   -5.7625    0.0000 C   0  0  0  0  0  0  0  0  0  0  0  0
    6.8167   -6.8875    0.0000 C   0  0  0  0  0  0  0  0  0  0  0  0
    5.5250   -6.1375    0.0000 C   0  0  0  0  0  0  0  0  0  0  0  0
    5.5250   -6.8875    0.0000 C   0  0  0  0  0  0  0  0  0  0  0  0
    7.4625   -5.7625    0.0000 C   0  0  0  0  0  0  0  0  0  0  0  0
    8.1125   -6.1375    0.0000 C   0  0  0  0  0  0  0  0  0  0  0  0
    4.8750   -3.5125    0.0000 N   0  0  0  0  0  0  0  0  0  0  0  0
    3.5792   -2.7625    0.0000 N   0  0  0  0  0  0  0  0  0  0  0  0
    7.4625   -7.2625    0.0000 C   0  0  0  0  0  0  0  0  0  0  0  0
    8.1125   -6.8875    0.0000 C   0  0  0  0  0  0  0  0  0  0  0  0
    9.4250   -5.3792    0.0000 F   0  0  0  0  0  0  0  0  0  0  0  0
    9.1500   -6.4125    0.0000 F   0  0  0  0  0  0  0  0  0  0  0  0
    8.3875   -5.1042    0.0000 F   0  0  0  0  0  0  0  0  0  0  0  0
    6.1667   -5.0125    0.0000 C   0  0  0  0  0  0  0  0  0  0  0  0
    3.5792   -3.5125    0.0000 C   0  0  0  0  0  0  0  0  0  0  0  0
    4.2292   -2.3875    0.0000 C   0  0  0  0  0  0  0  0  0  0  0  0
    4.2292   -3.8875    0.0000 C   0  0  0  0  0  0  0  0  0  0  0  0
    4.8750   -2.7625    0.0000 C   0  0  0  0  0  0  0  0  0  0  0  0
    5.5250   -4.6375    0.0000 C   0  0  0  0  0  0  0  0  0  0  0  0
    5.5250   -3.8875    0.0000 C   0  0  0  0  0  0  0  0  0  0  0  0
    2.3292   -3.7417    0.0000 Cl  0  0  0  0  0  0  0  0  0  0  0  0
    6.4792   -3.4917    0.0000 Cl  0  0  0  0  0  0  0  0  0  0  0  0
    4.8750   -5.7625    0.0000 C   0  0  0  0  0  0  0  0  0  0  0  0
    4.8750   -7.2625    0.0000 C   0  0  0  0  0  0  0  0  0  0  0  0
    2.9250   -2.3875    0.0000 C   0  0  0  0  0  0  0  0  0  0  0  0
    4.2250   -6.1375    0.0000 C   0  0  0  0  0  0  0  0  0  0  0  0
    4.2250   -6.8875    0.0000 C   0  0  0  0  0  0  0  0  0  0  0  0
  2  1  1  0
  3  7  1  0
  4  9  1  0
  5  2  2  0
  6  1  1  0
  7  6  2  0
  8  2  1  0
  9  8  2  0
 10 23  1  0
 11 19  1  0
 12  5  1  0
 13  9  1  0
 14  4  1  0
 15  4  1  0
 16  4  1  0
 17  1  1  0
 18 20  1  0
 19 21  1  0
 20 10  1  0
 21 10  1  0
 22 17  1  0
 23 22  1  0
 26  6  1  0
 27  7  1  0
 28 11  1  0
 29 26  2  0
 30 29  1  0
  5  3  1  0
 30 27  2  0
 13 12  2  0
 18 11  1  0
M  END
>  <ID>  (565) 


>  <MOLENAME>  (565) 
TRIFLUOPERAZINE HYDROCHLORIDE

>  <therap>  (565) 
antipsychotic

>  <ref>  (565) 
Arzneim forsch 27:866 (1977); Anal Profiles Drug Subs 9:543 (1980)

>  <cas#>  (565) 
440-17-5, 117-89-5 [trifluoperazine]

>  <source>  (565) 
synthetic

>  <status>  (565) 
USP, INN, BAN, JAN

>  <tradename>  (565) 
STELAZINE

>  <SMILES>  (565) 
CN1CCN(CCCN2c3c(cccc3)Sc3c2cc(C(F)(F)F)cc3)CC1

>  <standardized_failed>  (565) 
False

$$$$

     RDKit          2D

 23 24  0  0  0  0  0  0  0  0999 V2000
    6.7375   -4.4167    0.0000 C   0  0  0  0  0  0  0  0  0  0  0  0
    5.9875   -4.4167    0.0000 C   0  0  0  0  0  0  0  0  0  0  0  0
    4.8625   -3.7792    0.0000 N   0  0  0  0  0  0  0  0  0  0  0  0
    6.7375   -5.1667    0.0000 C   0  0  0  0  0  0  0  0  0  0  0  0
    5.6125   -3.7792    0.0000 C   0  0  0  0  0  0  0  0  0  0  0  0
    7.4875   -4.4167    0.0000 C   0  0  0  0  0  0  0  0  0  0  0  0
    6.7375   -3.6667    0.0000 O   0  0  0  0  0  0  0  0  0  0  0  0
    5.2375   -2.7792    0.0000 Cl  0  0  0  0  0  0  0  0  0  0  0  0
    4.4875   -4.4292    0.0000 C   0  0  0  0  0  0  0  0  0  0  0  0
    4.4875   -3.1292    0.0000 C   0  0  0  0  0  0  0  0  0  0  0  0
    7.3875   -5.5417    0.0000 C   0  0  0  0  0  0  0  0  0  0  0  0
    6.0917   -5.5417    0.0000 C   0  0  0  0  0  0  0  0  0  0  0  0
    7.8625   -3.7667    0.0000 C   0  0  0  0  0  0  0  0  0  0  0  0
    7.8625   -5.0667    0.0000 C   0  0  0  0  0  0  0  0  0  0  0  0
    3.7375   -4.4292    0.0000 C   0  0  0  0  0  0  0  0  0  0  0  0
    3.7375   -3.1292    0.0000 C   0  0  0  0  0  0  0  0  0  0  0  0
    7.3875   -6.2917    0.0000 C   0  0  0  0  0  0  0  0  0  0  0  0
    6.0917   -6.2917    0.0000 C   0  0  0  0  0  0  0  0  0  0  0  0
    8.6125   -5.0667    0.0000 C   0  0  0  0  0  0  0  0  0  0  0  0
    8.6125   -3.7667    0.0000 C   0  0  0  0  0  0  0  0  0  0  0  0
    6.7375   -6.6667    0.0000 C   0  0  0  0  0  0  0  0  0  0  0  0
    8.9875   -4.4167    0.0000 C   0  0  0  0  0  0  0  0  0  0  0  0
    3.3625   -3.7792    0.0000 C   0  0  0  0  0  0  0  0  0  0  0  0
  2  1  1  0
  3  5  1  0
  4  1  1  0
  5  2  1  0
  6  1  1  0
  7  1  1  0
  9  3  1  0
 10  3  1  0
 11  4  2  0
 12  4  1  0
 13  6  1  0
 14  6  1  0
 15  9  1  0
 16 10  1  0
 17 11  1  0
 18 12  2  0
 19 14  1  0
 20 13  1  0
 21 17  2  0
 22 20  1  0
 23 15  1  0
 19 22  1  0
 18 21  1  0
 16 23  1  0
M  END
>  <ID>  (566) 


>  <MOLENAME>  (566) 
TRIHEXYPHENIDYL HYDROCHLORIDE

>  <therap>  (566) 
anticholinergic, antiparkinsonian

>  <ref>  (566) 
JACS 71:2053 (1949)

>  <cas#>  (566) 
52-49-3

>  <source>  (566) 
synthetic

>  <status>  (566) 
USP, INN, BAN, JAN

>  <tradename>  (566) 
ARTANE

>  <SMILES>  (566) 
OC(CCN1CCCCC1)(c1ccccc1)C1CCCCC1

>  <standardized_failed>  (566) 
False

$$$$

     RDKit          2D

 31 32  0  0  0  0  0  0  0  0999 V2000
    3.6500   -5.0042    0.0000 N   0  0  0  0  0  0  0  0  0  0  0  0
    3.6500   -6.5167    0.0000 S   0  0  0  0  0  0  0  0  0  0  0  0
    8.8792   -5.1042    0.0000 C   0  0  0  0  0  0  0  0  0  0  0  0
    9.4667   -5.4417    0.0000 C   0  0  0  0  0  0  0  0  0  0  0  0
    2.9917   -5.3917    0.0000 C   0  0  0  0  0  0  0  0  0  0  0  0
    4.3000   -5.3917    0.0000 C   0  0  0  0  0  0  0  0  0  0  0  0
    4.3000   -6.1417    0.0000 C   0  0  0  0  0  0  0  0  0  0  0  0
    2.9917   -6.1417    0.0000 C   0  0  0  0  0  0  0  0  0  0  0  0
    8.2917   -5.4417    0.0000 C   0  0  0  0  0  0  0  0  0  0  0  0
   10.0542   -5.1000    0.0000 C   0  0  0  0  0  0  0  0  0  0  0  0
    3.6500   -4.2542    0.0000 C   0  0  0  0  0  0  0  0  0  0  0  0
    4.3000   -3.8792    0.0000 C   0  0  0  0  0  0  0  0  0  0  0  0
   10.0542   -4.4167    0.0000 O   0  0  0  0  0  0  0  0  0  0  0  0
    7.6917   -5.1042    0.0000 O   0  0  0  0  0  0  0  0  0  0  0  0
    8.8750   -4.4167    0.0000 O   0  0  0  0  0  0  0  0  0  0  0  0
    9.4667   -6.1292    0.0000 O   0  0  0  0  0  0  0  0  0  0  0  0
    5.2042   -4.2917    0.0000 C   0  0  0  0  0  0  0  0  0  0  0  0
    6.1125   -3.7917    0.0000 N   0  0  0  0  0  0  0  0  0  0  0  0
   10.6417   -5.4417    0.0000 O   0  0  0  0  0  0  0  0  0  0  0  0
    8.2917   -6.1292    0.0000 O   0  0  0  0  0  0  0  0  0  0  0  0
    4.9500   -5.0042    0.0000 C   0  0  0  0  0  0  0  0  0  0  0  0
    2.3375   -5.0042    0.0000 C   0  0  0  0  0  0  0  0  0  0  0  0
    2.3375   -6.5167    0.0000 C   0  0  0  0  0  0  0  0  0  0  0  0
    4.9542   -6.5167    0.0000 C   0  0  0  0  0  0  0  0  0  0  0  0
    4.3000   -3.1292    0.0000 C   0  0  0  0  0  0  0  0  0  0  0  0
    6.6750   -4.3917    0.0000 C   0  0  0  0  0  0  0  0  0  0  0  0
    6.7000   -3.3292    0.0000 C   0  0  0  0  0  0  0  0  0  0  0  0
    5.6042   -5.3917    0.0000 C   0  0  0  0  0  0  0  0  0  0  0  0
    1.6917   -5.3917    0.0000 C   0  0  0  0  0  0  0  0  0  0  0  0
    1.6917   -6.1417    0.0000 C   0  0  0  0  0  0  0  0  0  0  0  0
    5.6042   -6.1417    0.0000 C   0  0  0  0  0  0  0  0  0  0  0  0
  2  7  1  0
  4  3  1  0
  5  1  1  0
  6  1  1  0
  7  6  2  0
  8  5  2  0
  9  3  1  0
 10  4  1  0
 11  1  1  0
 12 11  1  0
 13 10  2  0
 14  9  2  0
 15  3  1  0
 16  4  1  0
 17 12  1  0
 18 17  1  0
 19 10  1  0
 20  9  1  0
 21  6  1  0
 22  5  1  0
 23  8  1  0
 24  7  1  0
 25 12  1  0
 26 18  1  0
 27 18  1  0
 28 21  2  0
 29 22  2  0
 30 23  2  0
 31 24  2  0
  2  8  1  0
 28 31  1  0
 29 30  1  0
M  END
>  <ID>  (567) 


>  <MOLENAME>  (567) 
TRIMEPRAZINE TARTRATE

>  <therap>  (567) 
antipruritic

>  <ref>  (567) 
J Pharm Pharmacol 18:19 (1966)

>  <cas#>  (567) 
4330-99-8, 41375-66-0 [replaced], 84-96-8 [trimeprazine]

>  <source>  (567) 
synthetic;Bay-1219, RP-6549

>  <status>  (567) 
USP, INN, BAN, JAN

>  <tradename>  (567) 
TEMARIL

>  <SMILES>  (567) 
CC(CN(C)C)CN1c2c(cccc2)Sc2c1cccc2

>  <standardized_failed>  (567) 
False

$$$$

     RDKit          2D

 21 22  0  0  0  0  0  0  0  0999 V2000
    3.9042    0.0333    0.0000 N   0  0  0  0  0  0  0  0  0  0  0  0
    3.2542   -0.3417    0.0000 C   0  0  0  0  0  0  0  0  0  0  0  0
    2.6125    0.0333    0.0000 C   0  0  0  0  0  0  0  0  0  0  0  0
    3.9042    0.7833    0.0000 C   0  0  0  0  0  0  0  0  0  0  0  0
    0.0000    0.7750    0.0000 C   0  0  0  0  0  0  0  0  0  0  0  0
    0.6500    1.1500    0.0000 C   0  0  0  0  0  0  0  0  0  0  0  0
    0.0042    0.0208    0.0000 C   0  0  0  0  0  0  0  0  0  0  0  0
    3.2542    1.1583    0.0000 N   0  0  0  0  0  0  0  0  0  0  0  0
    1.3042    0.0208    0.0000 C   0  0  0  0  0  0  0  0  0  0  0  0
    1.9542   -0.3500    0.0000 C   0  0  0  0  0  0  0  0  0  0  0  0
    2.6125    0.7833    0.0000 C   0  0  0  0  0  0  0  0  0  0  0  0
    1.2917    0.7750    0.0000 C   0  0  0  0  0  0  0  0  0  0  0  0
    0.6542   -0.3542    0.0000 C   0  0  0  0  0  0  0  0  0  0  0  0
    3.2542   -1.0917    0.0000 N   0  0  0  0  0  0  0  0  0  0  0  0
    4.5625    1.1625    0.0000 N   0  0  0  0  0  0  0  0  0  0  0  0
   -0.6583    1.1500    0.0000 O   0  0  0  0  0  0  0  0  0  0  0  0
   -0.6458   -0.3667    0.0000 O   0  0  0  0  0  0  0  0  0  0  0  0
    0.6500    1.9000    0.0000 O   0  0  0  0  0  0  0  0  0  0  0  0
   -1.3083    0.7708    0.0000 C   0  0  0  0  0  0  0  0  0  0  0  0
   -1.3083   -0.0000    0.0000 C   0  0  0  0  0  0  0  0  0  0  0  0
    1.2917    2.2750    0.0000 C   0  0  0  0  0  0  0  0  0  0  0  0
  2  1  2  0
  3  2  1  0
  4  1  1  0
  5  7  2  0
  6 12  2  0
  7 13  1  0
  8  4  2  0
  9 10  1  0
 10  3  1  0
 11  8  1  0
 12  9  1  0
 13  9  2  0
 14  2  1  0
 15  4  1  0
 16  5  1  0
 17  7  1  0
 18  6  1  0
 19 16  1  0
 20 17  1  0
 21 18  1  0
  3 11  2  0
  5  6  1  0
M  END
>  <ID>  (568) 


>  <MOLENAME>  (568) 
TRIMETHOPRIM

>  <therap>  (568) 
antibacterial

>  <ref>  (568) 
Drugs 23:405 (1982)

>  <cas#>  (568) 
738-70-5

>  <source>  (568) 
synthetic; BW-72U

>  <status>  (568) 
USP, INN, BAN, JAN

>  <tradename>  (568) 
TRIMPEX

>  <SMILES>  (568) 
COc1c(OC)c(OC)cc(Cc2cnc(N)nc2N)c1

>  <standardized_failed>  (568) 
False

$$$$

     RDKit          2D

 17 19  0  0  0  0  0  0  0  0999 V2000
   -0.8958   -2.4917    0.0000 C   0  0  0  0  0  0  0  0  0  0  0  0
   -0.8958   -3.2417    0.0000 C   0  0  0  0  0  0  0  0  0  0  0  0
    0.4167   -2.4917    0.0000 C   0  0  0  0  0  0  0  0  0  0  0  0
   -0.2375   -2.1125    0.0000 C   0  0  0  0  0  0  0  0  0  0  0  0
    0.4167   -3.2417    0.0000 C   0  0  0  0  0  0  0  0  0  0  0  0
   -1.5458   -3.6167    0.0000 C   0  0  0  0  0  0  0  0  0  0  0  0
   -1.5458   -2.1125    0.0000 O   0  0  0  0  0  0  0  0  0  0  0  0
    1.0667   -2.1042    0.0000 O   0  0  0  0  0  0  0  0  0  0  0  0
   -2.1958   -2.4917    0.0000 C   0  0  0  0  0  0  0  0  0  0  0  0
   -0.2375   -3.6167    0.0000 C   0  0  0  0  0  0  0  0  0  0  0  0
   -2.1958   -3.2417    0.0000 C   0  0  0  0  0  0  0  0  0  0  0  0
    1.7167   -3.2417    0.0000 C   0  0  0  0  0  0  0  0  0  0  0  0
    1.7167   -2.4917    0.0000 C   0  0  0  0  0  0  0  0  0  0  0  0
   -2.8458   -2.1167    0.0000 O   0  0  0  0  0  0  0  0  0  0  0  0
   -0.2375   -1.3625    0.0000 C   0  0  0  0  0  0  0  0  0  0  0  0
   -1.5458   -4.3667    0.0000 C   0  0  0  0  0  0  0  0  0  0  0  0
    2.3667   -2.1167    0.0000 C   0  0  0  0  0  0  0  0  0  0  0  0
  2  1  2  0
  3  4  2  0
  4  1  1  0
  5  3  1  0
  6  2  1  0
  7  1  1  0
  8  3  1  0
  9  7  1  0
 10  2  1  0
 11  9  1  0
 12  5  1  0
 13  8  1  0
 14  9  2  0
 15  4  1  0
 16  6  1  0
 17 13  1  0
  5 10  2  0
 11  6  2  0
 13 12  2  0
M  END
>  <ID>  (569) 


>  <MOLENAME>  (569) 
TRIOXSALEN

>  <therap>  (569) 
melanizing agent, antipsoriatic

>  <ref>  (569) 
Clin Exper Dermatol 6:133 (1981); Anal Profiles Drug Subs 10:705 (1981)

>  <cas#>  (569) 
3902-71-4

>  <source>  (569) 
synthetic; NSC-71047

>  <status>  (569) 
USP, INN, JAN

>  <tradename>  (569) 
TRISORALEN

>  <SMILES>  (569) 
Cc1cc2cc3c(oc(=O)cc3C)c(C)c2o1

>  <standardized_failed>  (569) 
False

$$$$

     RDKit          2D

 32 32  0  0  0  0  0  0  0  0999 V2000
   11.1417  -10.7500    0.0000 C   0  0  0  0  0  0  0  0  0  0  0  0
   11.7500  -10.4042    0.0000 C   0  0  0  0  0  0  0  0  0  0  0  0
   10.4500  -10.7417    0.0000 C   0  0  0  0  0  0  0  0  0  0  0  0
   11.4375  -11.3792    0.0000 C   0  0  0  0  0  0  0  0  0  0  0  0
    6.3792  -10.8000    0.0000 N   0  0  0  0  0  0  0  0  0  0  0  0
    7.1292  -10.8000    0.0000 C   0  0  0  0  0  0  0  0  0  0  0  0
   10.1000  -11.3417    0.0000 C   0  0  0  0  0  0  0  0  0  0  0  0
   11.7500   -9.7042    0.0000 C   0  0  0  0  0  0  0  0  0  0  0  0
    7.5042  -11.4417    0.0000 N   0  0  0  0  0  0  0  0  0  0  0  0
    6.0042  -11.4417    0.0000 C   0  0  0  0  0  0  0  0  0  0  0  0
   12.1292  -11.4375    0.0000 O   0  0  0  0  0  0  0  0  0  0  0  0
    6.0042  -10.1500    0.0000 C   0  0  0  0  0  0  0  0  0  0  0  0
   11.1500   -9.3625    0.0000 O   0  0  0  0  0  0  0  0  0  0  0  0
   10.4417  -11.9500    0.0000 O   0  0  0  0  0  0  0  0  0  0  0  0
   10.7917  -10.1417    0.0000 O   0  0  0  0  0  0  0  0  0  0  0  0
    4.8667   -9.5042    0.0000 N   0  0  0  0  0  0  0  0  0  0  0  0
   11.0375  -11.9500    0.0000 O   0  0  0  0  0  0  0  0  0  0  0  0
    5.2417  -10.1500    0.0000 C   0  0  0  0  0  0  0  0  0  0  0  0
    9.4042  -11.3417    0.0000 O   0  0  0  0  0  0  0  0  0  0  0  0
   12.3500   -9.3625    0.0000 O   0  0  0  0  0  0  0  0  0  0  0  0
    5.2417  -11.4417    0.0000 C   0  0  0  0  0  0  0  0  0  0  0  0
    7.5042  -10.1500    0.0000 C   0  0  0  0  0  0  0  0  0  0  0  0
    8.2542  -11.4417    0.0000 C   0  0  0  0  0  0  0  0  0  0  0  0
    4.1292   -9.5042    0.0000 C   0  0  0  0  0  0  0  0  0  0  0  0
    5.2417   -8.8542    0.0000 C   0  0  0  0  0  0  0  0  0  0  0  0
    4.8667  -12.1000    0.0000 C   0  0  0  0  0  0  0  0  0  0  0  0
    4.8667  -10.8000    0.0000 C   0  0  0  0  0  0  0  0  0  0  0  0
    8.2542  -10.1500    0.0000 C   0  0  0  0  0  0  0  0  0  0  0  0
    8.6292  -10.8000    0.0000 C   0  0  0  0  0  0  0  0  0  0  0  0
    4.1292  -12.0917    0.0000 C   0  0  0  0  0  0  0  0  0  0  0  0
    4.1292  -10.8000    0.0000 C   0  0  0  0  0  0  0  0  0  0  0  0
    3.7542  -11.4417    0.0000 C   0  0  0  0  0  0  0  0  0  0  0  0
  2  1  1  0
  3  1  1  0
  4  1  1  0
  6  5  1  0
  7  3  1  0
  8  2  1  0
  9  6  2  0
 10  5  1  0
 11  4  2  0
 12  5  1  0
 13  8  2  0
 14  7  2  0
 15  1  1  0
 16 18  1  0
 17  4  1  0
 18 12  1  0
 19  7  1  0
 20  8  1  0
 21 10  1  0
 22  6  1  0
 23  9  1  0
 24 16  1  0
 25 16  1  0
 26 21  2  0
 27 21  1  0
 28 22  2  0
 29 28  1  0
 30 26  1  0
 31 27  2  0
 32 31  1  0
 23 29  2  0
 30 32  2  0
M  END
>  <ID>  (570) 


>  <MOLENAME>  (570) 
TRIPELENNAMINE CITRATE

>  <therap>  (570) 
antihistaminic

>  <ref>  (570) 
Clin Toxicol 16:17 (1980); Anal Profiles Drug Subs 14:108 (1985)

>  <cas#>  (570) 
6138-56-3, 91-81-6 [tripelennamine]

>  <source>  (570) 
synthetic

>  <status>  (570) 
USP-XXIII, INN, BAN

>  <tradename>  (570) 
PYRIBENZAMINE

>  <SMILES>  (570) 
CN(C)CCN(Cc1ccccc1)c1ncccc1

>  <standardized_failed>  (570) 
False

$$$$

     RDKit          2D

 22 23  0  0  0  0  0  0  0  0999 V2000
    6.9250   -5.5000    0.0000 C   0  0  0  0  0  0  0  0  0  0  0  0
    7.3000   -4.8500    0.0000 C   0  0  0  0  0  0  0  0  0  0  0  0
    7.3000   -3.5500    0.0000 N   0  0  0  0  0  0  0  0  0  0  0  0
    6.1750   -5.5000    0.0000 C   0  0  0  0  0  0  0  0  0  0  0  0
    7.3000   -6.1417    0.0000 C   0  0  0  0  0  0  0  0  0  0  0  0
    6.9250   -6.7917    0.0000 N   0  0  0  0  0  0  0  0  0  0  0  0
    6.9250   -4.1917    0.0000 C   0  0  0  0  0  0  0  0  0  0  0  0
    5.8000   -4.8500    0.0000 C   0  0  0  0  0  0  0  0  0  0  0  0
    5.8000   -6.1500    0.0000 C   0  0  0  0  0  0  0  0  0  0  0  0
    5.0500   -4.8500    0.0000 C   0  0  0  0  0  0  0  0  0  0  0  0
    5.0500   -6.1500    0.0000 C   0  0  0  0  0  0  0  0  0  0  0  0
    4.6750   -5.5000    0.0000 C   0  0  0  0  0  0  0  0  0  0  0  0
    8.5417   -4.1167    0.0000 Cl  0  0  0  0  0  0  0  0  0  0  0  0
    8.0417   -3.4667    0.0000 C   0  0  0  0  0  0  0  0  0  0  0  0
    6.9917   -2.8625    0.0000 C   0  0  0  0  0  0  0  0  0  0  0  0
    7.3000   -7.4417    0.0000 C   0  0  0  0  0  0  0  0  0  0  0  0
    8.0500   -6.1417    0.0000 C   0  0  0  0  0  0  0  0  0  0  0  0
    3.9250   -5.5000    0.0000 C   0  0  0  0  0  0  0  0  0  0  0  0
    7.5500   -2.3625    0.0000 C   0  0  0  0  0  0  0  0  0  0  0  0
    8.2000   -2.7375    0.0000 C   0  0  0  0  0  0  0  0  0  0  0  0
    8.0500   -7.4417    0.0000 C   0  0  0  0  0  0  0  0  0  0  0  0
    8.4250   -6.7875    0.0000 C   0  0  0  0  0  0  0  0  0  0  0  0
  2  1  2  0
  3  7  1  0
  4  1  1  0
  5  1  1  0
  6  5  2  0
  7  2  1  0
  8  4  2  0
  9  4  1  0
 10  8  1  0
 11  9  2  0
 12 11  1  0
 14  3  1  0
 15  3  1  0
 16  6  1  0
 17  5  1  0
 18 12  1  0
 19 15  1  0
 20 14  1  0
 21 22  1  0
 22 17  2  0
 16 21  2  0
 10 12  2  0
 20 19  1  0
M  END
>  <ID>  (571) 


>  <MOLENAME>  (571) 
TRIPROLIDINE HYDROCHLORIDE

>  <therap>  (571) 
antihistaminic

>  <ref>  (571) 
J Pharm Pharmacol 23:848 (1971); J Allergy Clin Immunol 77:326 (1986)

>  <cas#>  (571) 
6138-79-0, 550-70-9 [anhydrous], 486-12-4 [triprolidine]

>  <source>  (571) 
synthetic

>  <status>  (571) 
USP, INN, BAN, JAN

>  <tradename>  (571) 
ACTIDIL

>  <SMILES>  (571) 
Cc1ccc(/C(=C\CN2CCCC2)c2ncccc2)cc1

>  <standardized_failed>  (571) 
False

$$$$

     RDKit          2D

 21 22  0  0  0  0  0  0  0  0999 V2000
    2.9417   -2.3125    0.0000 C   0  0  0  0  0  0  0  0  0  0  0  0
    2.5667   -1.6667    0.0000 C   0  0  0  0  0  0  0  0  0  0  0  0
    2.5667   -2.9625    0.0000 N   0  0  0  0  0  0  0  0  0  0  0  0
    3.6917   -2.3125    0.0000 O   0  0  0  0  0  0  0  0  0  0  0  0
    2.9417   -3.6042    0.0000 C   0  0  0  0  0  0  0  0  0  0  0  0
    1.8167   -1.6667    0.0000 C   0  0  0  0  0  0  0  0  0  0  0  0
    1.8167   -5.5542    0.0000 N   0  0  0  0  0  0  0  0  0  0  0  0
    2.9417   -1.0167    0.0000 C   0  0  0  0  0  0  0  0  0  0  0  0
    2.5667   -4.2542    0.0000 C   0  0  0  0  0  0  0  0  0  0  0  0
    1.8167   -2.9625    0.0000 C   0  0  0  0  0  0  0  0  0  0  0  0
    3.6917   -1.0167    0.0000 O   0  0  0  0  0  0  0  0  0  0  0  0
    1.4417   -4.9042    0.0000 C   0  0  0  0  0  0  0  0  0  0  0  0
    2.5667   -5.5542    0.0000 C   0  0  0  0  0  0  0  0  0  0  0  0
    1.4417   -2.3167    0.0000 C   0  0  0  0  0  0  0  0  0  0  0  0
    1.4417   -1.0167    0.0000 C   0  0  0  0  0  0  0  0  0  0  0  0
    1.8167   -4.2542    0.0000 C   0  0  0  0  0  0  0  0  0  0  0  0
    2.9417   -4.9042    0.0000 C   0  0  0  0  0  0  0  0  0  0  0  0
    1.5167   -2.4750    0.0000 C   0  0  0  0  0  0  0  0  0  0  0  0
    0.6917   -1.0167    0.0000 C   0  0  0  0  0  0  0  0  0  0  0  0
    0.6917   -2.3167    0.0000 C   0  0  0  0  0  0  0  0  0  0  0  0
    0.3167   -1.6667    0.0000 C   0  0  0  0  0  0  0  0  0  0  0  0
  2  1  1  0
  3  1  1  0
  4  1  2  0
  5  3  1  0
  6  2  1  0
  7 13  2  0
  8  2  1  0
  9  5  1  0
 10  3  1  0
 11  8  1  0
 12 16  2  0
 13 17  1  0
 14  6  2  0
 15  6  1  0
 16  9  1  0
 17  9  2  0
 18 10  1  0
 19 15  2  0
 20 14  1  0
 21 19  1  0
  7 12  1  0
 20 21  2  0
M  END
>  <ID>  (572) 


>  <MOLENAME>  (572) 
TROPICAMIDE

>  <therap>  (572) 
anticholinergic (opthalmic)

>  <ref>  (572) 
Anal Profiles Drug Subs 3:565 (1974)

>  <cas#>  (572) 
1508-75-4

>  <source>  (572) 
synthetic

>  <status>  (572) 
USP, INN, BAN, JAN

>  <tradename>  (572) 
MYRDRIACYL

>  <SMILES>  (572) 
CCN(Cc1ccncc1)C(=O)C(CO)c1ccccc1

>  <standardized_failed>  (572) 
False

$$$$

     RDKit          2D

 15 16  0  0  0  0  0  0  0  0999 V2000
    3.8875   -3.7500    0.0000 C   0  0  0  0  0  0  0  0  0  0  0  0
    2.6167   -4.1667    0.0000 N   0  0  0  0  0  0  0  0  0  0  0  0
    3.4042   -4.4167    0.0000 C   0  0  0  0  0  0  0  0  0  0  0  0
    3.4000   -3.0875    0.0000 C   0  0  0  0  0  0  0  0  0  0  0  0
    5.9542   -4.4417    0.0000 C   0  0  0  0  0  0  0  0  0  0  0  0
    4.7167   -3.7417    0.0000 C   0  0  0  0  0  0  0  0  0  0  0  0
    2.6167   -3.3417    0.0000 C   0  0  0  0  0  0  0  0  0  0  0  0
    5.1292   -4.4542    0.0000 C   0  0  0  0  0  0  0  0  0  0  0  0
    6.3667   -3.7292    0.0000 O   0  0  0  0  0  0  0  0  0  0  0  0
    4.7250   -5.1750    0.0000 N   0  0  0  0  0  0  0  0  0  0  0  0
    6.3750   -5.1625    0.0000 O   0  0  0  0  0  0  0  0  0  0  0  0
    3.5667   -2.2792    0.0000 C   0  0  0  0  0  0  0  0  0  0  0  0
    2.0042   -2.7917    0.0000 C   0  0  0  0  0  0  0  0  0  0  0  0
    2.9542   -1.7292    0.0000 C   0  0  0  0  0  0  0  0  0  0  0  0
    2.1667   -1.9875    0.0000 C   0  0  0  0  0  0  0  0  0  0  0  0
  2  3  1  0
  3  1  2  0
  4  1  1  0
  5  8  1  0
  6  1  1  0
  7  4  2  0
  8  6  1  0
  9  5  2  0
 10  8  1  0
 11  5  1  0
 12  4  1  0
 13  7  1  0
 14 12  2  0
 15 14  1  0
  7  2  1  0
 15 13  2  0
M  END
>  <ID>  (573) 


>  <MOLENAME>  (573) 
TRYPTOPHAN

>  <therap>  (573) 
antidepressant, nutrient; LD50(rat) 1634 mg/kg ip 

>  <ref>  (573) 
Biochem J 29:2256 (1935); JACS 67:36 (1945); Aust J Chem 16:246 (1963)

>  <cas#>  (573) 
73-22-3 ['L']

>  <source>  (573) 
many plants, animal protein 

>  <status>  (573) 
USP, INN, JAN

>  <tradename>  (573) 
nan

>  <SMILES>  (573) 
NC(Cc1c[nH]c2c1cccc2)C(=O)O

>  <standardized_failed>  (573) 
False

$$$$

     RDKit          2D

 13 11  0  0  0  0  0  0  0  0999 V2000
   10.8542   -4.5917    0.0000 S   0  0  0  0  0  0  0  0  0  0  0  0
   10.8500   -5.2792    0.0000 O   0  0  0  0  0  0  0  0  0  0  0  0
   11.5375   -4.5917    0.0000 O   0  0  0  0  0  0  0  0  0  0  0  0
   10.1667   -4.5917    0.0000 O   0  0  0  0  0  0  0  0  0  0  0  0
   10.8500   -3.9042    0.0000 O   0  0  0  0  0  0  0  0  0  0  0  0
    8.1167   -4.3417    0.0000 N   0  0  0  0  0  0  0  0  0  0  0  0
    7.4667   -4.7167    0.0000 C   0  0  0  0  0  0  0  0  0  0  0  0
    6.8167   -4.3417    0.0000 C   0  0  0  0  0  0  0  0  0  0  0  0
    4.8667   -4.7167    0.0000 C   0  0  0  0  0  0  0  0  0  0  0  0
    5.5167   -4.3417    0.0000 C   0  0  0  0  0  0  0  0  0  0  0  0
    6.1667   -4.7167    0.0000 C   0  0  0  0  0  0  0  0  0  0  0  0
    7.4667   -5.4750    0.0000 C   0  0  0  0  0  0  0  0  0  0  0  0
    4.2167   -4.3417    0.0000 C   0  0  0  0  0  0  0  0  0  0  0  0
  2  1  2  0
  3  1  2  0
  4  1  1  0
  5  1  1  0
  7  6  1  0
  8  7  1  0
  9 10  1  0
 10 11  1  0
 11  8  1  0
 12  7  1  0
 13  9  1  0
M  END
>  <ID>  (574) 


>  <MOLENAME>  (574) 
TUAMINOHEPTANE SULFATE

>  <therap>  (574) 
adrenergic agonist

>  <ref>  (574) 
Biochem Pharmacol 40:821 (1990)

>  <cas#>  (574) 
6411-75-2, 123-82-0 [tuaminoheptane]

>  <source>  (574) 
synthetic

>  <status>  (574) 
USP-XX

>  <tradename>  (574) 
HEPTEDRINE

>  <SMILES>  (574) 
CCCCCC(C)N

>  <standardized_failed>  (574) 
False

$$$$

     RDKit          2D

 92 97  0  0  0  0  0  0  0  0999 V2000
    9.4250   -3.5125    0.0000 N   0  0  0  0  0  0  0  0  0  0  0  0
    9.4167   -2.4292    0.0000 C   0  0  0  0  0  0  0  0  0  0  0  0
    2.8917   -0.6542    0.0000 N   0  0  0  0  0  0  0  0  0  0  0  0
    8.6500   -4.7500    0.0000 C   0  0  0  0  0  0  0  0  0  0  0  0
    5.0167   -0.2500    0.0000 C   0  0  0  0  0  0  0  0  0  0  0  0
   10.0542   -1.0292    0.0000 N   0  0  0  0  0  0  0  0  0  0  0  0
    8.6167   -5.8667    0.0000 N   0  0  0  0  0  0  0  0  0  0  0  0
    2.9542   -7.2792    0.0000 N   0  0  0  0  0  0  0  0  0  0  0  0
    5.4542   -6.5875    0.0000 N   0  0  0  0  0  0  0  0  0  0  0  0
    8.3500    1.4458    0.0000 N   0  0  0  0  0  0  0  0  0  0  0  0
    0.6792   -2.8667    0.0000 N   0  0  0  0  0  0  0  0  0  0  0  0
    6.1042    0.1583    0.0000 N   0  0  0  0  0  0  0  0  0  0  0  0
    2.3292   -1.5625    0.0000 C   0  0  0  0  0  0  0  0  0  0  0  0
   10.0542   -1.8542    0.0000 C   0  0  0  0  0  0  0  0  0  0  0  0
    1.1792   -5.3667    0.0000 N   0  0  0  0  0  0  0  0  0  0  0  0
    1.1792   -6.7792    0.0000 C   0  0  0  0  0  0  0  0  0  0  0  0
    9.2625   -0.2167    0.0000 C   0  0  0  0  0  0  0  0  0  0  0  0
    7.0125   -6.5917    0.0000 C   0  0  0  0  0  0  0  0  0  0  0  0
    3.8292   -6.8417    0.0000 C   0  0  0  0  0  0  0  0  0  0  0  0
   -0.0833   -3.9167    0.0000 C   0  0  0  0  0  0  0  0  0  0  0  0
    7.3875    1.4375    0.0000 C   0  0  0  0  0  0  0  0  0  0  0  0
    9.3542   -4.3167    0.0000 C   0  0  0  0  0  0  0  0  0  0  0  0
    3.7375   -0.0917    0.0000 C   0  0  0  0  0  0  0  0  0  0  0  0
    1.9917   -7.2792    0.0000 C   0  0  0  0  0  0  0  0  0  0  0  0
    1.0167   -1.7792    0.0000 C   0  0  0  0  0  0  0  0  0  0  0  0
    8.0292   -6.6000    0.0000 C   0  0  0  0  0  0  0  0  0  0  0  0
    4.6417   -7.3042    0.0000 C   0  0  0  0  0  0  0  0  0  0  0  0
    9.2625    0.7500    0.0000 C   0  0  0  0  0  0  0  0  0  0  0  0
    1.6417   -7.9625    0.0000 C   0  0  0  0  0  0  0  0  0  0  0  0
   -0.0708   -4.9667    0.0000 C   0  0  0  0  0  0  0  0  0  0  0  0
    6.4792    0.9333    0.0000 C   0  0  0  0  0  0  0  0  0  0  0  0
    2.3917   -8.6792    0.0000 C   0  0  0  0  0  0  0  0  0  0  0  0
    8.7292   -2.1792    0.0000 O   0  0  0  0  0  0  0  0  0  0  0  0
   -2.1625   -6.4667    0.0000 C   0  0  0  0  0  0  0  0  0  0  0  0
    7.8542   -4.4000    0.0000 O   0  0  0  0  0  0  0  0  0  0  0  0
    5.0167   -0.8417    0.0000 O   0  0  0  0  0  0  0  0  0  0  0  0
   10.6917   -2.4042    0.0000 C   0  0  0  0  0  0  0  0  0  0  0  0
    2.9250   -2.0292    0.0000 O   0  0  0  0  0  0  0  0  0  0  0  0
    6.9792   -5.7792    0.0000 O   0  0  0  0  0  0  0  0  0  0  0  0
    0.4542   -7.1792    0.0000 O   0  0  0  0  0  0  0  0  0  0  0  0
    8.5125   -0.5000    0.0000 O   0  0  0  0  0  0  0  0  0  0  0  0
    3.8292   -6.0542    0.0000 O   0  0  0  0  0  0  0  0  0  0  0  0
    7.3875    2.3750    0.0000 O   0  0  0  0  0  0  0  0  0  0  0  0
   -0.7250   -3.9042    0.0000 O   0  0  0  0  0  0  0  0  0  0  0  0
    0.4500   -1.1042    0.0000 C   0  0  0  0  0  0  0  0  0  0  0  0
    8.6667   -7.2417    0.0000 C   0  0  0  0  0  0  0  0  0  0  0  0
    4.6417   -8.1167    0.0000 C   0  0  0  0  0  0  0  0  0  0  0  0
   10.1292    0.7208    0.0000 C   0  0  0  0  0  0  0  0  0  0  0  0
    3.0792   -8.6792    0.0000 O   0  0  0  0  0  0  0  0  0  0  0  0
   -2.1625   -7.1792    0.0000 O   0  0  0  0  0  0  0  0  0  0  0  0
   -0.4750   -5.8042    0.0000 C   0  0  0  0  0  0  0  0  0  0  0  0
   10.2292   -3.3292    0.0000 C   0  0  0  0  0  0  0  0  0  0  0  0
    3.6417    0.5958    0.0000 C   0  0  0  0  0  0  0  0  0  0  0  0
   -1.8125   -5.8042    0.0000 C   0  0  0  0  0  0  0  0  0  0  0  0
   -0.2708   -1.5167    0.0000 C   0  0  0  0  0  0  0  0  0  0  0  0
   -1.6875   -2.3417    0.0000 C   0  0  0  0  0  0  0  0  0  0  0  0
    1.7417   -9.2417    0.0000 O   0  0  0  0  0  0  0  0  0  0  0  0
   -3.1958   -6.4667    0.0000 O   0  0  0  0  0  0  0  0  0  0  0  0
   11.4125   -1.9792    0.0000 C   0  0  0  0  0  0  0  0  0  0  0  0
    9.3792   -6.8167    0.0000 C   0  0  0  0  0  0  0  0  0  0  0  0
    5.1542   -8.3917    0.0000 C   0  0  0  0  0  0  0  0  0  0  0  0
   -0.9750   -1.1042    0.0000 C   0  0  0  0  0  0  0  0  0  0  0  0
   -0.2708   -2.3500    0.0000 C   0  0  0  0  0  0  0  0  0  0  0  0
    3.9250    2.2208    0.0000 N   0  0  0  0  0  0  0  0  0  0  0  0
   -0.9750   -2.7542    0.0000 C   0  0  0  0  0  0  0  0  0  0  0  0
   -1.6875   -1.5167    0.0000 C   0  0  0  0  0  0  0  0  0  0  0  0
   10.1125   -4.6542    0.0000 C   0  0  0  0  0  0  0  0  0  0  0  0
   -2.4000   -2.7542    0.0000 O   0  0  0  0  0  0  0  0  0  0  0  0
   10.6417   -4.0500    0.0000 C   0  0  0  0  0  0  0  0  0  0  0  0
    5.9792    1.6583    0.0000 C   0  0  0  0  0  0  0  0  0  0  0  0
   10.9167    1.1208    0.0000 C   0  0  0  0  0  0  0  0  0  0  0  0
    4.6292    2.1958    0.0000 C   0  0  0  0  0  0  0  0  0  0  0  0
    2.8292    0.7500    0.0000 C   0  0  0  0  0  0  0  0  0  0  0  0
    4.0792    1.2208    0.0000 C   0  0  0  0  0  0  0  0  0  0  0  0
   12.1292   -2.4042    0.0000 C   0  0  0  0  0  0  0  0  0  0  0  0
   11.4125   -1.1542    0.0000 C   0  0  0  0  0  0  0  0  0  0  0  0
    5.1542   -9.2250    0.0000 C   0  0  0  0  0  0  0  0  0  0  0  0
    5.8750   -7.9750    0.0000 C   0  0  0  0  0  0  0  0  0  0  0  0
    9.3792   -5.9917    0.0000 C   0  0  0  0  0  0  0  0  0  0  0  0
   10.1000   -7.2417    0.0000 C   0  0  0  0  0  0  0  0  0  0  0  0
    5.1542    1.5583    0.0000 C   0  0  0  0  0  0  0  0  0  0  0  0
   11.0125    1.9333    0.0000 C   0  0  0  0  0  0  0  0  0  0  0  0
   11.6667    0.7833    0.0000 C   0  0  0  0  0  0  0  0  0  0  0  0
   10.8250   -6.8167    0.0000 C   0  0  0  0  0  0  0  0  0  0  0  0
    5.8750   -9.6417    0.0000 C   0  0  0  0  0  0  0  0  0  0  0  0
    6.6000   -8.3917    0.0000 C   0  0  0  0  0  0  0  0  0  0  0  0
   12.8542   -1.9792    0.0000 C   0  0  0  0  0  0  0  0  0  0  0  0
   12.1292   -0.7375    0.0000 C   0  0  0  0  0  0  0  0  0  0  0  0
   10.1000   -5.5750    0.0000 C   0  0  0  0  0  0  0  0  0  0  0  0
   10.8250   -5.9917    0.0000 C   0  0  0  0  0  0  0  0  0  0  0  0
    6.6000   -9.2250    0.0000 C   0  0  0  0  0  0  0  0  0  0  0  0
   12.8542   -1.1542    0.0000 C   0  0  0  0  0  0  0  0  0  0  0  0
  2  1  1  0
  3 23  1  0
  4 22  1  0
  5 12  1  0
  6 14  1  0
  7  4  1  0
  8 19  1  0
  9 18  1  0
 10 28  1  0
 11 20  1  0
 12 31  1  0
 13  3  1  0
 14  2  1  0
 15 16  1  0
 16 24  1  0
 17  6  1  0
 18 26  1  0
 19 27  1  0
 20 30  1  0
 21 10  1  0
 22  1  1  0
 23  5  1  0
 24  8  1  0
 25 13  1  0
 26  7  1  0
 27  9  1  0
 28 17  1  0
 29 24  1  0
 30 15  1  0
 31 21  1  0
 32 29  1  0
 33  2  2  0
 34 54  1  0
 35  4  2  0
 36  5  2  0
 37 14  1  0
 38 13  2  0
 39 18  2  0
 40 16  2  0
 41 17  2  0
 42 19  2  0
 43 21  2  0
 44 20  2  0
 45 25  1  0
 46 26  1  0
 47 27  1  0
 48 28  1  0
 49 32  2  0
 50 34  2  0
 51 30  1  0
 52  1  1  0
 53 23  1  0
 54 51  1  0
 55 45  1  0
 56 65  2  0
 57 32  1  0
 58 34  1  0
 59 37  1  0
 60 46  1  0
 61 47  1  0
 62 55  1  0
 63 55  2  0
 64 72  1  0
 65 63  1  0
 66 62  2  0
 67 22  1  0
 68 56  1  0
 69 52  1  0
 70 31  1  0
 71 48  1  0
 72 81  1  0
 73 53  1  0
 74 53  1  0
 75 59  2  0
 76 59  1  0
 77 61  2  0
 78 61  1  0
 79 60  2  0
 80 60  1  0
 81 70  1  0
 82 71  1  0
 83 71  1  0
 84 80  2  0
 85 77  1  0
 86 78  2  0
 87 75  1  0
 88 76  2  0
 89 79  1  0
 90 84  1  0
 91 86  1  0
 92 88  1  0
 69 67  1  0
 92 87  2  0
 90 89  2  0
 91 85  2  0
 11 25  1  0
 56 66  1  0
M  END
>  <ID>  (575) 


>  <MOLENAME>  (575) 
TYROTHRICIN

>  <therap>  (575) 
topical antibacterial (topical)

>  <ref>  (575) 
Arzneim Forsch 7:98 (1957)

>  <cas#>  (575) 
1404-88-2

>  <source>  (575) 
Bacillus aneurinolyticus; mixture of gramicidins & tyrocidines (tyrocidine A shown)

>  <status>  (575) 
USP, INN, BAN

>  <tradename>  (575) 
HYDROTRICINE

>  <SMILES>  (575) 
CC(C)CC1NC(=O)C(CCCN)NC(=O)C(C(C)C)NC(=O)C(Cc2ccc(O)cc2)NC(=O)C(CCC(=O)O)NC(=O)C(CC(=O)O)NC(=O)C(Cc2ccccc2)NC(=O)C(Cc2ccccc2)NC(=O)C2CCCN2C(=O)C(Cc2ccccc2)NC1=O

>  <standardized_failed>  (575) 
False

$$$$

     RDKit          2D

  4  3  0  0  0  0  0  0  0  0999 V2000
    0.3542   -0.6500    0.0000 C   0  0  0  0  0  0  0  0  0  0  0  0
    1.0042   -1.0250    0.0000 O   0  0  0  0  0  0  0  0  0  0  0  0
   -0.2875   -1.0250    0.0000 N   0  0  0  0  0  0  0  0  0  0  0  0
    0.3542    0.1000    0.0000 N   0  0  0  0  0  0  0  0  0  0  0  0
  2  1  2  0
  3  1  1  0
  4  1  1  0
M  END
>  <ID>  (576) 


>  <MOLENAME>  (576) 
UREA

>  <therap>  (576) 
diuretic

>  <ref>  (576) 
Can Med Assoc J 78:206 (1958)

>  <cas#>  (576) 
57-13-6

>  <source>  (576) 
synthetic

>  <status>  (576) 
USP, JAN

>  <tradename>  (576) 
UREAPHIL

>  <SMILES>  (576) 
NC(N)=O

>  <standardized_failed>  (576) 
False

$$$$

     RDKit          2D

 28 31  0  0  0  0  0  0  0  0999 V2000
    6.6875   -9.9375    0.0000 C   0  0  0  0  0  0  0  0  0  0  0  0
    4.5417  -11.1792    0.0000 C   0  0  0  0  0  0  0  0  0  0  0  0
    6.6875  -10.7667    0.0000 C   0  0  0  0  0  0  0  0  0  0  0  0
    5.2542  -10.7667    0.0000 C   0  0  0  0  0  0  0  0  0  0  0  0
    5.9667  -11.1792    0.0000 C   0  0  0  0  0  0  0  0  0  0  0  0
    4.5417  -12.0042    0.0000 C   0  0  0  0  0  0  0  0  0  0  0  0
    5.9667  -12.0042    0.0000 C   0  0  0  0  0  0  0  0  0  0  0  0
    7.4667   -9.6792    0.0000 C   0  0  0  0  0  0  0  0  0  0  0  0
    5.9667   -9.5250    0.0000 C   0  0  0  0  0  0  0  0  0  0  0  0
    5.2542  -12.4167    0.0000 C   0  0  0  0  0  0  0  0  0  0  0  0
    5.2542   -9.9375    0.0000 C   0  0  0  0  0  0  0  0  0  0  0  0
    7.4667  -11.0167    0.0000 C   0  0  0  0  0  0  0  0  0  0  0  0
    3.8292  -10.7667    0.0000 C   0  0  0  0  0  0  0  0  0  0  0  0
    7.9542  -10.3500    0.0000 C   0  0  0  0  0  0  0  0  0  0  0  0
    9.5875   -7.7542    0.0000 C   0  0  0  0  0  0  0  0  0  0  0  0
    3.8292  -12.4167    0.0000 C   0  0  0  0  0  0  0  0  0  0  0  0
   10.1417   -8.3667    0.0000 O   0  0  0  0  0  0  0  0  0  0  0  0
    7.7250   -8.8917    0.0000 C   0  0  0  0  0  0  0  0  0  0  0  0
    8.5292   -8.7167    0.0000 C   0  0  0  0  0  0  0  0  0  0  0  0
    6.6917  -12.4250    0.0000 O   0  0  0  0  0  0  0  0  0  0  0  0
    8.7792   -7.9292    0.0000 C   0  0  0  0  0  0  0  0  0  0  0  0
    6.6792   -9.1125    0.0000 C   0  0  0  0  0  0  0  0  0  0  0  0
    3.1125  -11.1792    0.0000 C   0  0  0  0  0  0  0  0  0  0  0  0
    3.1125  -12.0042    0.0000 C   0  0  0  0  0  0  0  0  0  0  0  0
    4.5417  -10.3500    0.0000 C   0  0  0  0  0  0  0  0  0  0  0  0
    9.8417   -6.9750    0.0000 O   0  0  0  0  0  0  0  0  0  0  0  0
    2.3917  -12.4250    0.0000 O   0  0  0  0  0  0  0  0  0  0  0  0
    7.1667   -8.2792    0.0000 C   0  0  0  0  0  0  0  0  0  0  0  0
  2  4  1  0
  3  1  1  0
  4 11  1  0
  5  3  1  0
  6  2  1  0
  7  5  1  0
  8  1  1  0
  9  1  1  0
 10  7  1  0
 11  9  1  0
 12  3  1  0
 13  2  1  0
  8 14  1  1
 15 21  1  0
  6 16  1  6
 17 15  2  0
  8 18  1  0
 19 18  1  0
  7 20  1  1
 21 19  1  0
  1 22  1  1
 23 13  1  0
 24 23  1  0
  2 25  1  1
 26 15  1  0
 24 27  1  6
 18 28  1  6
 14 12  1  0
  4  5  1  0
 10  6  1  0
 24 16  1  0
M  END
>  <ID>  (577) 


>  <MOLENAME>  (577) 
URSODIOL

>  <therap>  (577) 
anticholelithogenic; LD50(rat) 890 mg/kg ip

>  <ref>  (577) 
Hoppe Seyler's Z Physiol Chem 244:181 (1936); Drugs 21:90 (1981); Gastroenterology 91:1007 (1986)

>  <cas#>  (577) 
128-13-2

>  <source>  (577) 
bear bile

>  <status>  (577) 
USP, INN, BAN, JAN

>  <tradename>  (577) 
ACTIGALL

>  <SMILES>  (577) 
C[C@H](CCC(=O)O)[C@H]1CCC2C3C(CC[C@@]21C)[C@@]1(C)CC[C@@H](O)C[C@H]1C[C@@H]3O

>  <standardized_failed>  (577) 
False

$$$$

     RDKit          2D

 11  9  0  0  0  0  0  0  0  0999 V2000
    2.7375   -2.0417    0.0000 C   0  0  0  0  0  0  0  0  0  0  0  0
    3.4500   -1.6292    0.0000 O   0  0  0  0  0  0  0  0  0  0  0  0
    2.7375   -2.8667    0.0000 O   0  0  0  0  0  0  0  0  0  0  0  0
    2.0250   -1.6375    0.0000 C   0  0  0  0  0  0  0  0  0  0  0  0
    4.8625   -1.6167    0.0000 Na  0  0  0  0  0 15  0  0  0  0  0  0
    1.3125   -2.0500    0.0000 C   0  0  0  0  0  0  0  0  0  0  0  0
    2.0167   -0.8125    0.0000 C   0  0  0  0  0  0  0  0  0  0  0  0
    0.6000   -1.6417    0.0000 C   0  0  0  0  0  0  0  0  0  0  0  0
    1.3042   -0.4000    0.0000 C   0  0  0  0  0  0  0  0  0  0  0  0
   -0.1125   -2.0542    0.0000 C   0  0  0  0  0  0  0  0  0  0  0  0
    1.3042    0.4250    0.0000 C   0  0  0  0  0  0  0  0  0  0  0  0
  2  1  1  0
  3  1  2  0
  4  1  1  0
  6  4  1  0
  7  4  1  0
  8  6  1  0
  9  7  1  0
 10  8  1  0
 11  9  1  0
M  CHG  2   2  -1   5   1
M  END
>  <ID>  (578) 


>  <MOLENAME>  (578) 
VALPROATE SODIUM

>  <therap>  (578) 
anticonvulsant

>  <ref>  (578) 
Pharmacol Toxicol 69:310 (1991); Pharmacotherapy 5:171 (1985); 15:631 (1995)

>  <cas#>  (578) 
1069-66-5, 99-66-1 [valproic acid]

>  <source>  (578) 
synthetic; Abbott-44090

>  <status>  (578) 
USAN, JAN

>  <tradename>  (578) 
DEPACON

>  <SMILES>  (578) 
CCCC(CCC)C(=O)O

>  <standardized_failed>  (578) 
False

$$$$

     RDKit          2D

102110  0  0  0  0  0  0  0  0999 V2000
    9.8042  -11.9375    0.0000 C   0  0  0  0  0  0  0  0  0  0  0  0
    5.4542   -6.9417    0.0000 C   0  0  0  0  0  0  0  0  0  0  0  0
    1.0667  -11.6292    0.0000 C   0  0  0  0  0  0  0  0  0  0  0  0
    5.8667   -7.6542    0.0000 C   0  0  0  0  0  0  0  0  0  0  0  0
    0.3292  -12.8875    0.0000 N   0  0  0  0  0  0  0  0  0  0  0  0
    0.3292  -12.0500    0.0000 C   0  0  0  0  0  0  0  0  0  0  0  0
    4.1542  -11.7500    0.0000 N   0  0  0  0  0  0  0  0  0  0  0  0
    6.1542  -12.1625    0.0000 N   0  0  0  0  0  0  0  0  0  0  0  0
    9.0542  -12.3167    0.0000 C   0  0  0  0  0  0  0  0  0  0  0  0
    1.9042  -14.5375    0.0000 C   0  0  0  0  0  0  0  0  0  0  0  0
    1.2542  -14.1625    0.0000 C   0  0  0  0  0  0  0  0  0  0  0  0
    4.8917  -12.1625    0.0000 C   0  0  0  0  0  0  0  0  0  0  0  0
    2.5542  -14.1625    0.0000 C   0  0  0  0  0  0  0  0  0  0  0  0
    5.4167   -9.1125    0.0000 C   0  0  0  0  0  0  0  0  0  0  0  0
    1.2542  -13.4042    0.0000 C   0  0  0  0  0  0  0  0  0  0  0  0
    5.8750   -6.2292    0.0000 C   0  0  0  0  0  0  0  0  0  0  0  0
    8.3542  -11.8625    0.0000 N   0  0  0  0  0  0  0  0  0  0  0  0
    5.4292  -11.6875    0.0000 C   0  0  0  0  0  0  0  0  0  0  0  0
   10.5042  -12.3917    0.0000 N   0  0  0  0  0  0  0  0  0  0  0  0
    4.6917   -9.5375    0.0000 C   0  0  0  0  0  0  0  0  0  0  0  0
    6.1417   -9.5375    0.0000 C   0  0  0  0  0  0  0  0  0  0  0  0
    6.9042  -11.7875    0.0000 C   0  0  0  0  0  0  0  0  0  0  0  0
    6.6917   -7.6542    0.0000 O   0  0  0  0  0  0  0  0  0  0  0  0
    3.2042  -12.2625    0.0000 C   0  0  0  0  0  0  0  0  0  0  0  0
    5.4542   -8.3667    0.0000 O   0  0  0  0  0  0  0  0  0  0  0  0
    2.8667   -5.4792    0.0000 C   0  0  0  0  0  0  0  0  0  0  0  0
    5.4167  -10.7875    0.0000 C   0  0  0  0  0  0  0  0  0  0  0  0
    6.7000   -6.2292    0.0000 C   0  0  0  0  0  0  0  0  0  0  0  0
    3.9667   -9.1167    0.0000 O   0  0  0  0  0  0  0  0  0  0  0  0
    6.8667   -9.1167    0.0000 O   0  0  0  0  0  0  0  0  0  0  0  0
    7.6042  -12.2417    0.0000 C   0  0  0  0  0  0  0  0  0  0  0  0
    2.5792  -11.9292    0.0000 C   0  0  0  0  0  0  0  0  0  0  0  0
    1.9042  -15.2917    0.0000 C   0  0  0  0  0  0  0  0  0  0  0  0
    4.1125   -6.1917    0.0000 C   0  0  0  0  0  0  0  0  0  0  0  0
    1.7792  -12.0500    0.0000 C   0  0  0  0  0  0  0  0  0  0  0  0
   11.2417  -12.0167    0.0000 C   0  0  0  0  0  0  0  0  0  0  0  0
    7.1042   -6.9417    0.0000 C   0  0  0  0  0  0  0  0  0  0  0  0
    1.0667  -10.7917    0.0000 C   0  0  0  0  0  0  0  0  0  0  0  0
    9.8417  -11.1042    0.0000 C   0  0  0  0  0  0  0  0  0  0  0  0
    3.2875   -6.1917    0.0000 C   0  0  0  0  0  0  0  0  0  0  0  0
    2.5542  -13.4042    0.0000 C   0  0  0  0  0  0  0  0  0  0  0  0
    4.5167   -5.4750    0.0000 O   0  0  0  0  0  0  0  0  0  0  0  0
    3.2042  -13.0167    0.0000 C   0  0  0  0  0  0  0  0  0  0  0  0
    3.2792   -4.7625    0.0000 C   0  0  0  0  0  0  0  0  0  0  0  0
    7.5542  -13.0750    0.0000 C   0  0  0  0  0  0  0  0  0  0  0  0
    1.7792  -10.3750    0.0000 C   0  0  0  0  0  0  0  0  0  0  0  0
    9.0292  -10.3875    0.0000 C   0  0  0  0  0  0  0  0  0  0  0  0
    4.6250   -6.9292    0.0000 O   0  0  0  0  0  0  0  0  0  0  0  0
    1.6792  -12.9875    0.0000 C   0  0  0  0  0  0  0  0  0  0  0  0
    4.6917  -10.3750    0.0000 C   0  0  0  0  0  0  0  0  0  0  0  0
    6.1417  -10.3750    0.0000 C   0  0  0  0  0  0  0  0  0  0  0  0
    7.5917   -9.5375    0.0000 C   0  0  0  0  0  0  0  0  0  0  0  0
    3.2417   -9.5375    0.0000 C   0  0  0  0  0  0  0  0  0  0  0  0
    4.1042   -4.7542    0.0000 C   0  0  0  0  0  0  0  0  0  0  0  0
    1.2542  -15.6750    0.0000 C   0  0  0  0  0  0  0  0  0  0  0  0
    3.2417  -10.3750    0.0000 C   0  0  0  0  0  0  0  0  0  0  0  0
    8.3167   -9.1250    0.0000 C   0  0  0  0  0  0  0  0  0  0  0  0
    6.8167  -13.4542    0.0000 C   0  0  0  0  0  0  0  0  0  0  0  0
    2.5167  -10.8000    0.0000 C   0  0  0  0  0  0  0  0  0  0  0  0
    9.0417   -9.5500    0.0000 C   0  0  0  0  0  0  0  0  0  0  0  0
    3.2167  -14.5375    0.0000 C   0  0  0  0  0  0  0  0  0  0  0  0
    0.6042  -14.5375    0.0000 C   0  0  0  0  0  0  0  0  0  0  0  0
   11.9292  -12.4792    0.0000 C   0  0  0  0  0  0  0  0  0  0  0  0
   -0.3833  -11.6292    0.0000 O   0  0  0  0  0  0  0  0  0  0  0  0
    9.0167  -13.1542    0.0000 O   0  0  0  0  0  0  0  0  0  0  0  0
    4.9167  -12.9875    0.0000 O   0  0  0  0  0  0  0  0  0  0  0  0
    0.5917  -15.2917    0.0000 C   0  0  0  0  0  0  0  0  0  0  0  0
    6.9417  -10.9500    0.0000 O   0  0  0  0  0  0  0  0  0  0  0  0
    2.7042  -11.2417    0.0000 O   0  0  0  0  0  0  0  0  0  0  0  0
   11.2417  -11.4125    0.0000 O   0  0  0  0  0  0  0  0  0  0  0  0
    3.8667  -13.3917    0.0000 C   0  0  0  0  0  0  0  0  0  0  0  0
    8.3042  -10.8000    0.0000 C   0  0  0  0  0  0  0  0  0  0  0  0
    1.7917   -9.5375    0.0000 C   0  0  0  0  0  0  0  0  0  0  0  0
    2.3042  -12.8042    0.0000 O   0  0  0  0  0  0  0  0  0  0  0  0
    7.5792  -10.3792    0.0000 C   0  0  0  0  0  0  0  0  0  0  0  0
    2.5042   -9.1250    0.0000 C   0  0  0  0  0  0  0  0  0  0  0  0
    6.7667  -14.2917    0.0000 O   0  0  0  0  0  0  0  0  0  0  0  0
   11.8792  -13.3000    0.0000 C   0  0  0  0  0  0  0  0  0  0  0  0
    2.1167   -5.8167    0.0000 N   0  0  0  0  0  0  0  0  0  0  0  0
    3.8667  -14.1542    0.0000 C   0  0  0  0  0  0  0  0  0  0  0  0
    5.4667   -5.5000    0.0000 O   0  0  0  0  0  0  0  0  0  0  0  0
    7.1125   -5.5167    0.0000 O   0  0  0  0  0  0  0  0  0  0  0  0
    2.5667  -15.6750    0.0000 O   0  0  0  0  0  0  0  0  0  0  0  0
   12.6667  -12.1042    0.0000 N   0  0  0  0  0  0  0  0  0  0  0  0
    6.1167  -13.0000    0.0000 N   0  0  0  0  0  0  0  0  0  0  0  0
    2.8667   -4.0500    0.0000 O   0  0  0  0  0  0  0  0  0  0  0  0
    0.3292  -10.3750    0.0000 O   0  0  0  0  0  0  0  0  0  0  0  0
    3.9667  -10.8000    0.0000 Cl  0  0  0  0  0  0  0  0  0  0  0  0
    8.3167   -8.2875    0.0000 Cl  0  0  0  0  0  0  0  0  0  0  0  0
   10.3042  -10.7542    0.0000 O   0  0  0  0  0  0  0  0  0  0  0  0
    1.2667  -12.4292    0.0000 O   0  0  0  0  0  0  0  0  0  0  0  0
    3.2167  -15.3000    0.0000 O   0  0  0  0  0  0  0  0  0  0  0  0
    7.9417   -6.9417    0.0000 C   0  0  0  0  0  0  0  0  0  0  0  0
   -0.0583  -15.6750    0.0000 O   0  0  0  0  0  0  0  0  0  0  0  0
   13.6917  -13.3375    0.0000 Cl  0  0  0  0  0  0  0  0  0  0  0  0
    2.1417   -5.0667    0.0000 C   0  0  0  0  0  0  0  0  0  0  0  0
    8.2917   -6.2792    0.0000 O   0  0  0  0  0  0  0  0  0  0  0  0
    4.5125   -4.0292    0.0000 C   0  0  0  0  0  0  0  0  0  0  0  0
   11.1417  -13.6750    0.0000 C   0  0  0  0  0  0  0  0  0  0  0  0
   12.7167  -11.2875    0.0000 C   0  0  0  0  0  0  0  0  0  0  0  0
   11.1042  -14.5000    0.0000 C   0  0  0  0  0  0  0  0  0  0  0  0
   10.4542  -13.2250    0.0000 C   0  0  0  0  0  0  0  0  0  0  0  0
  2  4  1  0
  3 35  1  0
  4 25  1  1
  5  6  1  0
  3  6  1  6
  7 12  1  0
  8 22  1  0
  9  1  1  0
 10 13  1  0
 11 10  1  0
 12 18  1  0
 13 41  2  0
 14 21  1  0
 15 11  1  0
 16  2  1  0
 17  9  1  0
 18  8  1  1
 19  1  1  0
 20 14  2  0
 21 30  1  0
 22 31  1  0
 23  4  1  0
 24  7  1  0
 25 14  1  0
 26 40  1  0
 27 18  1  0
 28 37  1  0
 29 20  1  0
 30 52  1  0
 31 17  1  0
 32 24  1  0
 33 10  2  0
 34 48  1  1
 35 32  1  0
 36 19  1  0
 37 23  1  0
 38  3  1  0
 39  1  1  0
 40 34  1  0
 41 43  1  0
 42 34  1  0
 43 24  1  0
 44 54  1  0
 31 45  1  1
 46 73  2  0
 47 39  1  0
  2 48  1  6
 15 49  1  1
 50 27  2  0
 51 21  2  0
 52 75  1  0
 53 29  1  0
 54 42  1  0
 55 33  1  0
 56 53  1  0
 57 60  1  0
 58 45  1  0
 59 56  2  0
 60 47  2  0
 61 80  2  0
 62 11  2  0
 63 36  1  0
 64  6  2  0
 65  9  2  0
 66 12  2  0
 67 55  2  0
 68 22  2  0
 69 32  2  0
 70 36  2  0
 71 43  2  0
 72 47  1  0
 73 76  1  0
 74 49  2  0
 75 72  2  0
 76 53  2  0
 77 58  2  0
 63 78  1  6
 26 79  1  0
 80 71  1  0
 16 81  1  1
 28 82  1  6
 83 33  1  0
 63 84  1  0
 85 58  1  0
 44 86  1  6
 38 87  1  6
 88 56  1  0
 89 57  1  0
 39 90  1  1
 91 49  1  0
 92 61  1  0
 93 37  1  0
 94 67  1  0
 26 96  1  1
 97 93  1  0
 54 98  1  6
 99 78  1  0
100 84  1  0
101 99  1  0
102 99  1  0
 52 57  2  0
 27 51  1  0
 20 50  1  0
 28 16  1  0
 59 46  1  0
 13 61  1  0
 46 38  1  0
 15  5  1  0
 26 44  1  0
 62 67  1  0
M  END
>  <ID>  (579) 


>  <MOLENAME>  (579) 
VANCOMYCIN HYDROCHLORIDE

>  <therap>  (579) 
antibacterial

>  <ref>  (579) 
Med Clin North Am 79:817 (1995)

>  <cas#>  (579) 
1404-93-9, 1404-90-6 [vancomycin]

>  <source>  (579) 
Streptomyces orientalis

>  <status>  (579) 
USP, INN, BAN, JAN

>  <tradename>  (579) 
VANCOCIN

>  <SMILES>  (579) 
CN[C@H](CC(C)C)C(=O)NC1C(=O)N[C@@H](CC(N)=O)C(=O)N[C@H]2C(=O)NC3C(=O)C[C@H](C(=O)N[C@@H](C(=O)O)c4cc(O)cc(O)c4-c4cc3ccc4O)[C@H](O)c3ccc(Oc4c(O[C@@H]5OC(CO)[C@@H](O)[C@H](O)[C@H]5O[C@H]5C[C@](C)(N)[C@H](O)[C@H](C)O5)c(cc2c4)Oc2c(Cl)cc(cc2)[C@H]1O)c(Cl)c3

>  <standardized_failed>  (579) 
False

$$$$

     RDKit          2D

 19 21  0  0  0  0  0  0  0  0999 V2000
    6.5792   -7.5417    0.0000 N   0  0  0  0  0  0  0  0  0  0  0  0
    6.5625   -8.3667    0.0000 C   0  0  0  0  0  0  0  0  0  0  0  0
    5.7917   -7.2875    0.0000 C   0  0  0  0  0  0  0  0  0  0  0  0
    5.7917   -6.4625    0.0000 C   0  0  0  0  0  0  0  0  0  0  0  0
    6.5792   -6.2125    0.0000 N   0  0  0  0  0  0  0  0  0  0  0  0
    7.2125   -8.8500    0.0000 C   0  0  0  0  0  0  0  0  0  0  0  0
    7.0625   -6.8750    0.0000 C   0  0  0  0  0  0  0  0  0  0  0  0
    5.8667   -8.8500    0.0000 O   0  0  0  0  0  0  0  0  0  0  0  0
    6.9417   -9.6375    0.0000 C   0  0  0  0  0  0  0  0  0  0  0  0
    6.1125   -9.6375    0.0000 C   0  0  0  0  0  0  0  0  0  0  0  0
    5.0750   -6.0500    0.0000 C   0  0  0  0  0  0  0  0  0  0  0  0
    5.0750   -7.7042    0.0000 N   0  0  0  0  0  0  0  0  0  0  0  0
    4.3625   -6.4667    0.0000 N   0  0  0  0  0  0  0  0  0  0  0  0
    4.3625   -7.2917    0.0000 C   0  0  0  0  0  0  0  0  0  0  0  0
    8.0000   -8.6125    0.0000 O   0  0  0  0  0  0  0  0  0  0  0  0
    5.0667   -5.2250    0.0000 N   0  0  0  0  0  0  0  0  0  0  0  0
    7.4167  -10.3125    0.0000 O   0  0  0  0  0  0  0  0  0  0  0  0
    5.6292  -10.2917    0.0000 C   0  0  0  0  0  0  0  0  0  0  0  0
    6.0875  -10.9750    0.0000 O   0  0  0  0  0  0  0  0  0  0  0  0
  2  1  1  1
  3  1  1  0
  4  3  2  0
  5  7  2  0
  6  2  1  0
  7  1  1  0
  8  2  1  0
  9  6  1  0
 10  8  1  0
 11  4  1  0
 12  3  1  0
 13 14  1  0
 14 12  2  0
  6 15  1  1
 16 11  1  0
  9 17  1  6
 10 18  1  1
 19 18  1  0
  5  4  1  0
 10  9  1  0
 11 13  2  0
M  END
>  <ID>  (580) 


>  <MOLENAME>  (580) 
VIDARABINE

>  <therap>  (580) 
antiviral

>  <ref>  (580) 
Antimicrob Agents Chemother 1968:136, 180; Pharmacol Ther 8:143 (1980)

>  <cas#>  (580) 
24356-66-9, 5536-17-4 [anhydrous]

>  <source>  (580) 
synthetic

>  <status>  (580) 
USP, INN, BAN, JAN

>  <tradename>  (580) 
VIRA-A

>  <SMILES>  (580) 
Nc1ncnc2c1ncn2[C@@H]1O[C@H](CO)[C@@H](O)[C@@H]1O

>  <standardized_failed>  (580) 
False

$$$$

     RDKit          2D

 36 40  0  0  0  0  0  0  0  0999 V2000
    3.3542   -4.4792    0.0000 C   0  0  0  0  0  0  0  0  0  0  0  0
    2.6375   -4.0667    0.0000 C   0  0  0  0  0  0  0  0  0  0  0  0
    2.7667   -5.0625    0.0000 C   0  0  0  0  0  0  0  0  0  0  0  0
    3.9042   -3.8625    0.0000 O   0  0  0  0  0  0  0  0  0  0  0  0
    2.7625   -5.8875    0.0000 N   0  0  0  0  0  0  0  0  0  0  0  0
    2.3417   -7.1583    0.0000 N   0  0  0  0  0  0  0  0  0  0  0  0
    3.7667   -5.1917    0.0000 O   0  0  0  0  0  0  0  0  0  0  0  0
    8.9417   -2.5375    0.0000 N   0  0  0  0  0  0  0  0  0  0  0  0
    2.6375   -3.2333    0.0000 C   0  0  0  0  0  0  0  0  0  0  0  0
    3.4250   -6.3792    0.0000 N   0  0  0  0  0  0  0  0  0  0  0  0
   10.3667   -1.7125    0.0000 N   0  0  0  0  0  0  0  0  0  0  0  0
    3.1667   -7.1625    0.0000 C   0  0  0  0  0  0  0  0  0  0  0  0
    2.0875   -6.3750    0.0000 C   0  0  0  0  0  0  0  0  0  0  0  0
    1.9208   -4.4792    0.0000 C   0  0  0  0  0  0  0  0  0  0  0  0
    1.9208   -2.8208    0.0000 C   0  0  0  0  0  0  0  0  0  0  0  0
    8.2292   -2.9500    0.0000 C   0  0  0  0  0  0  0  0  0  0  0  0
    4.6625   -4.1917    0.0000 C   0  0  0  0  0  0  0  0  0  0  0  0
    8.9417   -1.7125    0.0000 C   0  0  0  0  0  0  0  0  0  0  0  0
    9.6542   -2.9417    0.0000 C   0  0  0  0  0  0  0  0  0  0  0  0
    9.6542   -1.2917    0.0000 C   0  0  0  0  0  0  0  0  0  0  0  0
   10.3667   -2.5375    0.0000 C   0  0  0  0  0  0  0  0  0  0  0  0
    4.5750   -5.0167    0.0000 C   0  0  0  0  0  0  0  0  0  0  0  0
    8.2333   -3.7708    0.0000 C   0  0  0  0  0  0  0  0  0  0  0  0
    7.5167   -2.5375    0.0000 C   0  0  0  0  0  0  0  0  0  0  0  0
    1.2000   -3.2375    0.0000 C   0  0  0  0  0  0  0  0  0  0  0  0
   11.0833   -1.3000    0.0000 C   0  0  0  0  0  0  0  0  0  0  0  0
    3.3542   -2.8208    0.0000 Cl  0  0  0  0  0  0  0  0  0  0  0  0
    6.0875   -4.1875    0.0000 O   0  0  0  0  0  0  0  0  0  0  0  0
    1.2042   -4.0708    0.0000 C   0  0  0  0  0  0  0  0  0  0  0  0
    6.8042   -3.7750    0.0000 C   0  0  0  0  0  0  0  0  0  0  0  0
    5.3750   -3.7792    0.0000 C   0  0  0  0  0  0  0  0  0  0  0  0
    6.8042   -2.9500    0.0000 C   0  0  0  0  0  0  0  0  0  0  0  0
    7.5250   -4.1875    0.0000 C   0  0  0  0  0  0  0  0  0  0  0  0
    0.4833   -2.8250    0.0000 Cl  0  0  0  0  0  0  0  0  0  0  0  0
   11.0875   -0.4750    0.0000 C   0  0  0  0  0  0  0  0  0  0  0  0
   11.7958   -1.7167    0.0000 C   0  0  0  0  0  0  0  0  0  0  0  0
  1  2  1  0
  1  3  1  1
  4  1  1  0
  5  3  1  0
  6 13  2  0
  7  1  1  0
  8 16  1  0
  9  2  2  0
 10  5  1  0
 11 20  1  0
 12 10  2  0
 13  5  1  0
 14  2  1  0
 15  9  1  0
 16 23  2  0
 17  4  1  0
 18  8  1  0
 19  8  1  0
 20 18  1  0
 21 19  1  0
 22  7  1  0
 23 33  1  0
 24 32  2  0
 25 29  1  0
 26 11  1  0
 27  9  1  0
 28 31  1  0
 29 14  2  0
 30 28  1  0
 17 31  1  1
 32 30  1  0
 33 30  2  0
 34 25  1  0
 35 26  1  0
 36 26  1  0
 17 22  1  0
 12  6  1  0
 25 15  2  0
 24 16  1  0
 11 21  1  0
M  END
>  <ID>  (581) 


>  <MOLENAME>  (581) 
TERCONAZOLE

>  <therap>  (581) 
antifungal

>  <ref>  (581) 
Chemotherapy 29:322 (1983); Pharmacotherapeutica 4:525 (1986)

>  <cas#>  (581) 
67915-31-5

>  <source>  (581) 
synthetic; R-42470

>  <status>  (581) 
USAN, INN, BAN

>  <tradename>  (581) 
TERAZOL

>  <SMILES>  (581) 
CC(C)N1CCN(c2ccc(OC[C@H]3CO[C@](Cn4cncn4)(c4c(Cl)cc(Cl)cc4)O3)cc2)CC1

>  <standardized_failed>  (581) 
False

$$$$

     RDKit          2D

 19 19  0  0  0  0  0  0  0  0999 V2000
    5.6917   -3.2250    0.0000 C   0  0  0  0  0  0  0  0  0  0  0  0
    7.1167   -4.0542    0.0000 C   0  0  0  0  0  0  0  0  0  0  0  0
    4.2417   -3.2042    0.0000 C   0  0  0  0  0  0  0  0  0  0  0  0
    5.6917   -4.0542    0.0000 C   0  0  0  0  0  0  0  0  0  0  0  0
    6.4042   -2.8125    0.0000 C   0  0  0  0  0  0  0  0  0  0  0  0
    4.0625   -4.0167    0.0000 N   0  0  0  0  0  0  0  0  0  0  0  0
    7.1167   -3.2250    0.0000 C   0  0  0  0  0  0  0  0  0  0  0  0
    6.4042   -4.4667    0.0000 C   0  0  0  0  0  0  0  0  0  0  0  0
    4.9667   -2.8000    0.0000 C   0  0  0  0  0  0  0  0  0  0  0  0
    3.5292   -2.7875    0.0000 N   0  0  0  0  0  0  0  0  0  0  0  0
    7.8417   -4.4750    0.0000 C   0  0  0  0  0  0  0  0  0  0  0  0
    2.7042   -5.1792    0.0000 Cl  0  0  0  0  0  0  0  0  0  0  0  0
    3.2417   -4.0917    0.0000 C   0  0  0  0  0  0  0  0  0  0  0  0
    4.9667   -4.4792    0.0000 C   0  0  0  0  0  0  0  0  0  0  0  0
    6.4042   -1.9875    0.0000 C   0  0  0  0  0  0  0  0  0  0  0  0
    2.9042   -3.3375    0.0000 C   0  0  0  0  0  0  0  0  0  0  0  0
    7.4167   -5.1917    0.0000 C   0  0  0  0  0  0  0  0  0  0  0  0
    8.2625   -3.7542    0.0000 C   0  0  0  0  0  0  0  0  0  0  0  0
    8.5625   -4.8917    0.0000 C   0  0  0  0  0  0  0  0  0  0  0  0
  2  7  2  0
  3  9  1  0
  4  1  1  0
  5  1  2  0
  6  3  2  0
  7  5  1  0
  8  4  2  0
  9  1  1  0
 10  3  1  0
 11  2  1  0
 13  6  1  0
 14  4  1  0
 15  5  1  0
 16 10  1  0
 17 11  1  0
 18 11  1  0
 19 11  1  0
  2  8  1  0
 13 16  1  0
M  END
>  <ID>  (582) 


>  <MOLENAME>  (582) 
XYLOMETAZOLINE HYDROCHLORIDE

>  <therap>  (582) 
adrenergic agonist, nasal decongestant

>  <ref>  (582) 
Anal Profiles Drug Subs 14:135 (1985); J Laryngol Otol 101:666 (1987)

>  <cas#>  (582) 
1218-35-5, 526-36-3 [xylometazoline]

>  <source>  (582) 
synthetic

>  <status>  (582) 
USP, INN, BAN

>  <tradename>  (582) 
OTRIVIN

>  <SMILES>  (582) 
Cc1cc(C(C)(C)C)cc(C)c1CC1=NCCN1

>  <standardized_failed>  (582) 
False

$$$$

     RDKit          2D

 18 19  0  0  0  0  0  0  0  0999 V2000
    7.6667   -1.7583    0.0000 C   0  0  0  0  0  0  0  0  0  0  0  0
    7.1708   -1.0875    0.0000 N   0  0  0  0  0  0  0  0  0  0  0  0
    7.1833   -2.4250    0.0000 N   0  0  0  0  0  0  0  0  0  0  0  0
    8.4917   -1.7500    0.0000 N   0  0  0  0  0  0  0  0  0  0  0  0
    6.3958   -2.1750    0.0000 C   0  0  0  0  0  0  0  0  0  0  0  0
    6.3917   -1.3500    0.0000 C   0  0  0  0  0  0  0  0  0  0  0  0
    5.6708   -2.5958    0.0000 C   0  0  0  0  0  0  0  0  0  0  0  0
    5.6708   -0.9375    0.0000 C   0  0  0  0  0  0  0  0  0  0  0  0
    4.9583   -2.1833    0.0000 C   0  0  0  0  0  0  0  0  0  0  0  0
    4.2458   -2.5958    0.0000 S   0  0  0  0  0  0  0  0  0  0  0  0
    4.9583   -1.3583    0.0000 C   0  0  0  0  0  0  0  0  0  0  0  0
    3.5333   -2.1833    0.0000 C   0  0  0  0  0  0  0  0  0  0  0  0
    2.8167   -2.5958    0.0000 C   0  0  0  0  0  0  0  0  0  0  0  0
    2.1042   -2.1833    0.0000 C   0  0  0  0  0  0  0  0  0  0  0  0
    8.8986   -1.0323    0.0000 C   0  0  0  0  0  0  0  0  0  0  0  0
    9.7235   -1.0259    0.0000 O   0  0  0  0  0  0  0  0  0  0  0  0
    8.4805   -0.3211    0.0000 O   0  0  0  0  0  0  0  0  0  0  0  0
   10.1416   -1.7371    0.0000 C   0  0  0  0  0  0  0  0  0  0  0  0
  5  3  1  0
  6  2  1  0
  7  5  2  0
  8  6  2  0
  9  7  1  0
 10  9  1  0
 11  8  1  0
 12 10  1  0
 13 12  1  0
 14 13  1  0
  6  5  1  0
 11  9  2  0
  4 15  1  0
  2  1  2  0
 15 16  1  0
  3  1  1  0
 15 17  2  0
  4  1  1  0
 16 18  1  0
M  END
>  <ID>  (583) 


>  <MOLENAME>  (583) 
ALBENDAZOLE

>  <therap>  (583) 
anthelmintic

>  <ref>  (583) 
Am J Vet Res 38:2037 (1977); Am J Trop Med Hyg 31:263 (1982)

>  <cas#>  (583) 
54965-21-8

>  <source>  (583) 
synthetic; SKF-62979

>  <status>  (583) 
USP

>  <tradename>  (583) 
ALBENZA

>  <SMILES>  (583) 
CCCSc1ccc2nc(NC(=O)OC)[nH]c2c1

>  <standardized_failed>  (583) 
False

$$$$

     RDKit          2D

 23 26  0  0  0  0  0  0  0  0999 V2000
    6.9625   -2.5250    0.0000 C   0  0  0  0  0  0  0  0  0  0  0  0
    6.9625   -3.3542    0.0000 C   0  0  0  0  0  0  0  0  0  0  0  0
    4.8125   -4.5917    0.0000 C   0  0  0  0  0  0  0  0  0  0  0  0
    6.2417   -3.7667    0.0000 C   0  0  0  0  0  0  0  0  0  0  0  0
    5.5250   -3.3542    0.0000 C   0  0  0  0  0  0  0  0  0  0  0  0
    4.8125   -3.7667    0.0000 C   0  0  0  0  0  0  0  0  0  0  0  0
    7.7417   -2.2667    0.0000 C   0  0  0  0  0  0  0  0  0  0  0  0
    4.1000   -5.0042    0.0000 C   0  0  0  0  0  0  0  0  0  0  0  0
    8.5250   -2.5292    0.0000 C   0  0  0  0  0  0  0  0  0  0  0  0
    6.2375   -2.1125    0.0000 C   0  0  0  0  0  0  0  0  0  0  0  0
    5.5250   -2.5250    0.0000 C   0  0  0  0  0  0  0  0  0  0  0  0
    6.2417   -4.5917    0.0000 C   0  0  0  0  0  0  0  0  0  0  0  0
    7.7417   -3.6042    0.0000 C   0  0  0  0  0  0  0  0  0  0  0  0
    9.3125   -2.7875    0.0000 C   0  0  0  0  0  0  0  0  0  0  0  0
    4.1000   -3.3542    0.0000 C   0  0  0  0  0  0  0  0  0  0  0  0
    5.5250   -5.0042    0.0000 C   0  0  0  0  0  0  0  0  0  0  0  0
    3.3875   -4.5917    0.0000 C   0  0  0  0  0  0  0  0  0  0  0  0
    8.2250   -2.9375    0.0000 C   0  0  0  0  0  0  0  0  0  0  0  0
    2.6625   -5.0042    0.0000 O   0  0  0  0  0  0  0  0  0  0  0  0
    3.3875   -3.7667    0.0000 C   0  0  0  0  0  0  0  0  0  0  0  0
    8.0792   -1.5167    0.0000 O   0  0  0  0  0  0  0  0  0  0  0  0
    6.9542   -1.7000    0.0000 C   0  0  0  0  0  0  0  0  0  0  0  0
    6.3000   -1.3792    0.0000 C   0  0  0  0  0  0  0  0  0  0  0  0
  2  1  1  0
  3  6  1  0
  4  2  1  0
  5 11  1  0
  6  5  1  0
  7  1  1  0
  8  3  2  0
  7  9  1  0
 10  1  1  0
 11 10  1  0
 12  4  1  0
 13  2  1  0
 14  9  3  0
  6 15  1  6
 16 12  1  0
 17 20  1  0
 18  7  1  0
 19 17  2  0
 20 15  1  0
  7 21  1  1
  1 22  1  0
 23 22  1  0
 13 18  1  0
  4  5  1  0
  3 16  1  0
  8 17  1  0
M  END
>  <ID>  (584) 


>  <MOLENAME>  (584) 
NORGESTREL

>  <therap>  (584) 
progestogen

>  <ref>  (584) 
Experientia 19:394 (1963); Anal Profiles Drug Subs 4:294 (1975)

>  <cas#>  (584) 
6533-00-2

>  <source>  (584) 
synthetic

>  <status>  (584) 
USP, INN, BAN, JAN

>  <tradename>  (584) 
OVRETTE

>  <SMILES>  (584) 
C#C[C@]1(O)CCC2C3CCC4=CC(=O)CC[C@@H]4C3CCC21CC

>  <standardized_failed>  (584) 
False

$$$$

     RDKit          2D

 13 13  0  0  0  0  0  0  0  0999 V2000
    5.4292   -1.1042    0.0000 C   0  0  0  0  0  0  0  0  0  0  0  0
    5.0542   -1.7542    0.0000 N   0  0  0  0  0  0  0  0  0  0  0  0
    5.0542   -0.4625    0.0000 O   0  0  0  0  0  0  0  0  0  0  0  0
    4.3042   -1.7542    0.0000 C   0  0  0  0  0  0  0  0  0  0  0  0
    2.8042   -1.7542    0.0000 C   0  0  0  0  0  0  0  0  0  0  0  0
    3.9292   -1.1042    0.0000 C   0  0  0  0  0  0  0  0  0  0  0  0
    3.9292   -2.4042    0.0000 C   0  0  0  0  0  0  0  0  0  0  0  0
    3.1792   -1.1042    0.0000 C   0  0  0  0  0  0  0  0  0  0  0  0
    3.1792   -2.4042    0.0000 C   0  0  0  0  0  0  0  0  0  0  0  0
    2.0542   -1.7542    0.0000 O   0  0  0  0  0  0  0  0  0  0  0  0
    6.1792   -1.1042    0.0000 C   0  0  0  0  0  0  0  0  0  0  0  0
    1.6792   -1.1042    0.0000 C   0  0  0  0  0  0  0  0  0  0  0  0
    0.9292   -1.1042    0.0000 C   0  0  0  0  0  0  0  0  0  0  0  0
  2  1  1  0
  3  1  2  0
  4  2  1  0
  5  9  1  0
  6  4  2  0
  7  4  1  0
  8  6  1  0
  9  7  2  0
 10  5  1  0
 11  1  1  0
 12 10  1  0
 13 12  1  0
  5  8  2  0
M  END
>  <ID>  (585) 


>  <MOLENAME>  (585) 
PHENACETIN

>  <therap>  (585) 
analgesic, antipyretic

>  <ref>  (585) 
Toxicol Appl Pharmacol 1:240 (1959); N Engl J Med 308:357 (1983); 320:1238 (1989)

>  <cas#>  (585) 
62-44-2

>  <source>  (585) 
synthetic

>  <status>  (585) 
USP-XX, INN, BAN

>  <tradename>  (585) 
SARIDON

>  <SMILES>  (585) 
CCOc1ccc(NC(C)=O)cc1

>  <standardized_failed>  (585) 
False

$$$$

     RDKit          2D

  6  4  0  0  0  0  0  0  0  0999 V2000
    4.5167   -4.4875    0.0000 C   0  0  0  0  0  0  0  0  0  0  0  0
    4.5167   -3.6625    0.0000 N   0  0  0  0  0  0  0  0  0  0  0  0
    5.2292   -4.8917    0.0000 N   0  0  0  0  0  0  0  0  0  0  0  0
    3.8042   -4.9000    0.0000 N   0  0  0  0  0  0  0  0  0  0  0  0
    5.9417   -4.4792    0.0000 N   0  0  0  0  0  0  0  0  0  0  0  0
    7.6792   -3.8042    0.0000 Cl  0  0  0  0  0  0  0  0  0  0  0  0
  2  1  2  0
  3  1  1  0
  4  1  1  0
  5  3  1  0
M  END
>  <ID>  (586) 


>  <MOLENAME>  (586) 
PIMAGEDINE HYDROCHLORIDE

>  <therap>  (586) 
glycosylation inhibitor

>  <ref>  (586) 
Eur J Pharmacol 233:119 (1993); Biochem Biophys Res Commun 199:147 (1994); 225:525 (1996) 

>  <cas#>  (586) 
1937-19-5

>  <source>  (586) 
synthetic; GER-11

>  <status>  (586) 
USAN

>  <tradename>  (586) 
nan

>  <SMILES>  (586) 
N=C(N)NN

>  <standardized_failed>  (586) 
False

$$$$

     RDKit          2D

 31 34  0  0  0  0  0  0  0  0999 V2000
    6.4125   -5.0667    0.0000 C   0  0  0  0  0  0  0  0  0  0  0  0
    6.3500   -2.2417    0.0000 C   0  0  0  0  0  0  0  0  0  0  0  0
    7.2250   -5.0292    0.0000 C   0  0  0  0  0  0  0  0  0  0  0  0
    6.7625   -3.7875    0.0000 C   0  0  0  0  0  0  0  0  0  0  0  0
    6.7625   -2.9625    0.0000 C   0  0  0  0  0  0  0  0  0  0  0  0
    6.1167   -4.3000    0.0000 C   0  0  0  0  0  0  0  0  0  0  0  0
    7.4417   -4.2417    0.0000 O   0  0  0  0  0  0  0  0  0  0  0  0
    5.5167   -2.2417    0.0000 C   0  0  0  0  0  0  0  0  0  0  0  0
    5.1042   -1.5292    0.0000 C   0  0  0  0  0  0  0  0  0  0  0  0
    6.7625   -1.5292    0.0000 C   0  0  0  0  0  0  0  0  0  0  0  0
    7.5917   -2.9625    0.0000 N   0  0  0  0  0  0  0  0  0  0  0  0
    5.8875   -5.7042    0.0000 C   0  0  0  0  0  0  0  0  0  0  0  0
    5.5167   -0.8167    0.0000 C   0  0  0  0  0  0  0  0  0  0  0  0
    6.3500   -0.8167    0.0000 C   0  0  0  0  0  0  0  0  0  0  0  0
    5.3042   -4.1625    0.0000 C   0  0  0  0  0  0  0  0  0  0  0  0
    4.3000   -1.3542    0.0000 O   0  0  0  0  0  0  0  0  0  0  0  0
    4.9625   -0.2000    0.0000 O   0  0  0  0  0  0  0  0  0  0  0  0
    7.7375   -5.6917    0.0000 O   0  0  0  0  0  0  0  0  0  0  0  0
    5.0750   -5.5667    0.0000 C   0  0  0  0  0  0  0  0  0  0  0  0
    7.5917   -1.5292    0.0000 C   0  0  0  0  0  0  0  0  0  0  0  0
    4.2167   -0.5417    0.0000 C   0  0  0  0  0  0  0  0  0  0  0  0
    8.0042   -2.2417    0.0000 C   0  0  0  0  0  0  0  0  0  0  0  0
    4.7792   -4.8000    0.0000 C   0  0  0  0  0  0  0  0  0  0  0  0
    5.0917   -2.9667    0.0000 O   0  0  0  0  0  0  0  0  0  0  0  0
    6.1667   -6.4875    0.0000 O   0  0  0  0  0  0  0  0  0  0  0  0
    9.3542   -3.4292    0.0000 Cl  0  0  0  0  0  0  0  0  0  0  0  0
    4.5500   -6.2167    0.0000 O   0  0  0  0  0  0  0  0  0  0  0  0
    8.0125   -3.6792    0.0000 C   0  0  0  0  0  0  0  0  0  0  0  0
    4.2625   -2.9542    0.0000 C   0  0  0  0  0  0  0  0  0  0  0  0
    5.6417   -7.1167    0.0000 C   0  0  0  0  0  0  0  0  0  0  0  0
    4.8417   -6.9875    0.0000 C   0  0  0  0  0  0  0  0  0  0  0  0
  2  5  1  0
  3  1  1  0
  4  6  1  0
  5  4  1  0
  6  1  2  0
  7  3  1  0
  8  2  2  0
  9  8  1  0
 10  2  1  0
  5 11  1  1
 12  1  1  0
 13 14  1  0
 14 10  2  0
 15  6  1  0
 16  9  1  0
 17 13  1  0
 18  3  2  0
 19 12  2  0
 20 22  1  0
 21 16  1  0
 22 11  1  0
 23 19  1  0
 24  8  1  0
 25 12  1  0
 27 19  1  0
 28 11  1  0
 29 24  1  0
 30 25  1  0
 31 27  1  0
  4  7  1  6
 15 23  2  0
 10 20  1  0
  9 13  2  0
 17 21  1  0
M  END
>  <ID>  (587) 


>  <MOLENAME>  (587) 
NOSCAPINE HYDROCHLORIDE

>  <therap>  (587) 
antitussive

>  <ref>  (587) 
Tetrahedron Letters 1965: 669

>  <cas#>  (587) 
912-60-7, 128-62-1 [noscapine]

>  <source>  (587) 
Corydalis cava and Papaver spp

>  <status>  (587) 
USP, INN, BAN, JAN

>  <tradename>  (587) 
TUSACAPINE

>  <SMILES>  (587) 
COc1c(OC)c2c(cc1)[C@H]([C@H]1c3c(OC)c4c(cc3CCN1C)OCO4)OC2=O

>  <standardized_failed>  (587) 
False

$$$$

     RDKit          2D

 13 12  0  0  0  0  0  0  0  0999 V2000
    5.9042   -1.9167    0.0000 C   0  0  0  0  0  0  0  0  0  0  0  0
    0.7042   -1.9167    0.0000 C   0  0  0  0  0  0  0  0  0  0  0  0
    5.9042   -2.6667    0.0000 O   0  0  0  0  0  0  0  0  0  0  0  0
    0.7042   -2.6667    0.0000 O   0  0  0  0  0  0  0  0  0  0  0  0
    6.5500   -1.5417    0.0000 O   0  0  0  0  0  0  0  0  0  0  0  0
    0.0542   -1.5417    0.0000 O   0  0  0  0  0  0  0  0  0  0  0  0
    1.3542   -1.5417    0.0000 C   0  0  0  0  0  0  0  0  0  0  0  0
    5.2542   -1.5417    0.0000 C   0  0  0  0  0  0  0  0  0  0  0  0
    4.6042   -1.9167    0.0000 C   0  0  0  0  0  0  0  0  0  0  0  0
    2.0042   -1.9167    0.0000 C   0  0  0  0  0  0  0  0  0  0  0  0
    3.3042   -1.9167    0.0000 C   0  0  0  0  0  0  0  0  0  0  0  0
    2.6542   -1.5417    0.0000 C   0  0  0  0  0  0  0  0  0  0  0  0
    3.9542   -1.5417    0.0000 C   0  0  0  0  0  0  0  0  0  0  0  0
  2  7  1  0
  3  1  2  0
  4  2  2  0
  5  1  1  0
  6  2  1  0
  7 10  1  0
  8  1  1  0
  9  8  1  0
 10 12  1  0
 11 13  1  0
 12 11  1  0
 13  9  1  0
M  END
>  <ID>  (588) 


>  <MOLENAME>  (588) 
AZELAIC ACID

>  <therap>  (588) 
antiacne, antiproliferative agent

>  <ref>  (588) 
Br J Dermatol 111:115 (1984); 114:493 (1986); J Am Acad Dermatol 17:1033 (1987)

>  <cas#>  (588) 
123-99-9

>  <source>  (588) 
rancid fats and Lycopodium spp

>  <status>  (588) 
USAN, INN

>  <tradename>  (588) 
FINACEAE

>  <SMILES>  (588) 
O=C(O)CCCCCCCC(=O)O

>  <standardized_failed>  (588) 
False

$$$$

     RDKit          2D

 65 67  0  0  0  0  0  0  0  0999 V2000
   10.4667   -5.1417    0.0000 C   0  0  0  0  0  0  0  0  0  0  0  0
   11.1042   -8.6042    0.0000 C   0  0  0  0  0  0  0  0  0  0  0  0
   11.1042   -9.4250    0.0000 C   0  0  0  0  0  0  0  0  0  0  0  0
   11.8250   -9.8375    0.0000 C   0  0  0  0  0  0  0  0  0  0  0  0
   11.8292   -5.8667    0.0000 C   0  0  0  0  0  0  0  0  0  0  0  0
   11.1667   -6.2417    0.0000 C   0  0  0  0  0  0  0  0  0  0  0  0
   11.8167   -8.1917    0.0000 O   0  0  0  0  0  0  0  0  0  0  0  0
   10.4417   -5.9542    0.0000 O   0  0  0  0  0  0  0  0  0  0  0  0
   12.5292   -9.4375    0.0000 C   0  0  0  0  0  0  0  0  0  0  0  0
   11.8292   -5.1042    0.0000 C   0  0  0  0  0  0  0  0  0  0  0  0
   11.1667   -4.7292    0.0000 C   0  0  0  0  0  0  0  0  0  0  0  0
    9.7292   -4.8042    0.0000 C   0  0  0  0  0  0  0  0  0  0  0  0
    1.8917   -5.2167    0.0000 C   0  0  0  0  0  0  0  0  0  0  0  0
    1.1792   -4.8042    0.0000 O   0  0  0  0  0  0  0  0  0  0  0  0
    0.3667   -6.0542    0.0000 C   0  0  0  0  0  0  0  0  0  0  0  0
   12.5292   -8.6042    0.0000 C   0  0  0  0  0  0  0  0  0  0  0  0
   12.3542   -6.1417    0.0000 C   0  0  0  0  0  0  0  0  0  0  0  0
    0.3542   -5.2000    0.0000 C   0  0  0  0  0  0  0  0  0  0  0  0
   -0.4625   -6.5875    0.0000 C   0  0  0  0  0  0  0  0  0  0  0  0
   10.5292   -8.1167    0.0000 O   0  0  0  0  0  0  0  0  0  0  0  0
    2.6042   -4.8042    0.0000 C   0  0  0  0  0  0  0  0  0  0  0  0
   11.1667   -6.9917    0.0000 C   0  0  0  0  0  0  0  0  0  0  0  0
    9.0167   -5.2167    0.0000 C   0  0  0  0  0  0  0  0  0  0  0  0
   10.5042   -7.3292    0.0000 C   0  0  0  0  0  0  0  0  0  0  0  0
    3.3167   -5.2167    0.0000 C   0  0  0  0  0  0  0  0  0  0  0  0
    1.8917   -6.0417    0.0000 O   0  0  0  0  0  0  0  0  0  0  0  0
   -0.4625   -7.3417    0.0000 C   0  0  0  0  0  0  0  0  0  0  0  0
   13.0042   -5.7667    0.0000 O   0  0  0  0  0  0  0  0  0  0  0  0
    4.0292   -4.8042    0.0000 C   0  0  0  0  0  0  0  0  0  0  0  0
    8.3042   -4.8042    0.0000 C   0  0  0  0  0  0  0  0  0  0  0  0
    4.7417   -5.2167    0.0000 C   0  0  0  0  0  0  0  0  0  0  0  0
   11.8417  -10.6542    0.0000 N   0  0  0  0  0  0  0  0  0  0  0  0
    5.4542   -4.8042    0.0000 C   0  0  0  0  0  0  0  0  0  0  0  0
    6.6625   -7.3417    0.0000 C   0  0  0  0  0  0  0  0  0  0  0  0
    7.3750   -7.7542    0.0000 C   0  0  0  0  0  0  0  0  0  0  0  0
    8.0875   -7.3417    0.0000 C   0  0  0  0  0  0  0  0  0  0  0  0
    5.9500   -7.7542    0.0000 C   0  0  0  0  0  0  0  0  0  0  0  0
    0.9625   -7.3417    0.0000 C   0  0  0  0  0  0  0  0  0  0  0  0
    8.8000   -7.7542    0.0000 C   0  0  0  0  0  0  0  0  0  0  0  0
    1.6750   -7.7542    0.0000 C   0  0  0  0  0  0  0  0  0  0  0  0
    5.2375   -7.3417    0.0000 C   0  0  0  0  0  0  0  0  0  0  0  0
    9.5125   -7.3417    0.0000 C   0  0  0  0  0  0  0  0  0  0  0  0
    0.2500   -7.7542    0.0000 C   0  0  0  0  0  0  0  0  0  0  0  0
   10.5292   -4.3917    0.0000 O   0  0  0  0  0  0  0  0  0  0  0  0
   10.3792   -9.8375    0.0000 O   0  0  0  0  0  0  0  0  0  0  0  0
    4.5250   -7.7542    0.0000 C   0  0  0  0  0  0  0  0  0  0  0  0
    2.3792   -7.3417    0.0000 C   0  0  0  0  0  0  0  0  0  0  0  0
    7.5917   -5.2167    0.0000 C   0  0  0  0  0  0  0  0  0  0  0  0
   13.2292   -9.8667    0.0000 O   0  0  0  0  0  0  0  0  0  0  0  0
   12.4792   -4.7292    0.0000 O   0  0  0  0  0  0  0  0  0  0  0  0
   12.3542   -6.8917    0.0000 O   0  0  0  0  0  0  0  0  0  0  0  0
   -1.2083   -6.1167    0.0000 O   0  0  0  0  0  0  0  0  0  0  0  0
    6.1667   -5.2167    0.0000 C   0  0  0  0  0  0  0  0  0  0  0  0
    9.0125   -6.0417    0.0000 O   0  0  0  0  0  0  0  0  0  0  0  0
    6.8792   -4.8042    0.0000 C   0  0  0  0  0  0  0  0  0  0  0  0
    8.3042   -3.9792    0.0000 O   0  0  0  0  0  0  0  0  0  0  0  0
    3.3167   -6.0417    0.0000 O   0  0  0  0  0  0  0  0  0  0  0  0
    4.7417   -6.0417    0.0000 O   0  0  0  0  0  0  0  0  0  0  0  0
    0.8917   -6.5542    0.0000 C   0  0  0  0  0  0  0  0  0  0  0  0
    6.1667   -6.0417    0.0000 O   0  0  0  0  0  0  0  0  0  0  0  0
   13.2542   -8.1917    0.0000 C   0  0  0  0  0  0  0  0  0  0  0  0
   -0.3833   -4.7167    0.0000 C   0  0  0  0  0  0  0  0  0  0  0  0
    3.8125   -7.3417    0.0000 C   0  0  0  0  0  0  0  0  0  0  0  0
    3.1000   -7.7542    0.0000 C   0  0  0  0  0  0  0  0  0  0  0  0
   -1.2708   -7.7542    0.0000 C   0  0  0  0  0  0  0  0  0  0  0  0
  2 20  1  0
  3  2  1  0
  4  3  1  0
  5 10  1  0
  6  8  1  0
  7  2  1  0
  8  1  1  0
  9 16  1  0
 10 11  1  0
 11  1  1  0
 12  1  1  0
 13 21  1  0
 14 13  1  0
 15 18  1  0
 16  7  1  0
 17  5  1  0
 18 14  1  0
 19 15  1  0
 20 24  1  0
 21 25  1  0
 22  6  1  0
 23 12  1  0
 24 22  1  0
 25 29  1  0
 26 13  2  0
 27 19  1  0
 28 17  2  0
 29 31  1  0
 30 23  1  0
 31 33  1  0
  4 32  1  6
 33 53  1  0
 34 35  1  0
 35 36  2  0
 36 39  1  0
 37 34  2  0
 38 40  1  0
 39 42  2  0
 40 47  2  0
 41 37  1  0
 42 24  1  0
 43 27  1  0
  1 44  1  1
  3 45  1  6
 46 41  2  0
 47 64  1  0
 48 30  1  0
  9 49  1  1
 50 10  1  0
 51 17  1  0
 19 52  1  1
 53 55  1  0
 54 23  1  0
 55 48  1  0
 56 30  1  0
 57 25  1  0
 58 31  1  0
 59 15  1  0
 60 53  1  0
 16 61  1  6
 18 62  1  6
 63 46  1  0
 64 63  1  0
 27 65  1  6
  5  6  1  0
  4  9  1  0
 43 38  2  0
M  END
>  <ID>  (589) 


>  <MOLENAME>  (589) 
NYSTATIN

>  <therap>  (589) 
antifungal, binds to membrane sterols

>  <ref>  (589) 
Tet. Lett. (1971), (8), 685-90; Ann. N. Y. Acad. Sci. (1960), 89, 258-66; Mycoses (1996), 39(9-10), 329-39

>  <cas#>  (589) 
114-90-9

>  <source>  (589) 
Streptomyces noursei

>  <status>  (589) 
USP, INN, BAN, JAN

>  <tradename>  (589) 
MYCOSTATIN

>  <SMILES>  (589) 
CC1[C@H](C)OC(=O)CC(O)CC(O)CC(O)CCC(O)C(O)C[C@]2(O)CC(O)C(C(=O)O)C(CC(OC3O[C@H](C)[C@@H](O)[C@H](N)[C@@H]3O)/C=C/C=C/C=C/C=C/CC/C=C/C=C/[C@H](C)[C@H]1O)O2

>  <standardized_failed>  (589) 
False

$$$$

     RDKit          2D

 17 18  0  0  0  0  0  0  0  0999 V2000
    7.5792   -6.7542    0.0000 C   0  0  0  0  0  0  0  0  0  0  0  0
    8.3167   -6.7667    0.0000 N   0  0  0  0  0  0  0  0  0  0  0  0
    7.3292   -7.4667    0.0000 N   0  0  0  0  0  0  0  0  0  0  0  0
    4.4042   -8.3417    0.0000 C   0  0  0  0  0  0  0  0  0  0  0  0
    3.7167   -8.0375    0.0000 N   0  0  0  0  0  0  0  0  0  0  0  0
    8.5542   -7.4750    0.0000 C   0  0  0  0  0  0  0  0  0  0  0  0
    7.9417   -7.9125    0.0000 C   0  0  0  0  0  0  0  0  0  0  0  0
    5.0542   -7.9667    0.0000 O   0  0  0  0  0  0  0  0  0  0  0  0
    6.5917   -7.6125    0.0000 N   0  0  0  0  0  0  0  0  0  0  0  0
    4.5667   -9.0792    0.0000 C   0  0  0  0  0  0  0  0  0  0  0  0
    5.6042   -8.4667    0.0000 C   0  0  0  0  0  0  0  0  0  0  0  0
    6.3542   -8.3167    0.0000 C   0  0  0  0  0  0  0  0  0  0  0  0
    5.3167   -9.1542    0.0000 C   0  0  0  0  0  0  0  0  0  0  0  0
    3.6375   -7.2875    0.0000 O   0  0  0  0  0  0  0  0  0  0  0  0
    3.1125   -8.4750    0.0000 O   0  0  0  0  0  0  0  0  0  0  0  0
    7.1417   -6.1292    0.0000 O   0  0  0  0  0  0  0  0  0  0  0  0
    9.2667   -7.7000    0.0000 O   0  0  0  0  0  0  0  0  0  0  0  0
  2  1  1  0
  3  1  1  0
  4  8  1  0
  5  4  1  0
  6  2  1  0
  7  3  1  0
  8 11  1  0
  9  3  1  0
 10 13  1  0
 11 12  1  0
 12  9  2  0
 13 11  2  0
 14  5  1  0
 15  5  2  0
 16  1  2  0
 17  6  2  0
  6  7  1  0
 10  4  2  0
M  CHG  2   5   1  14  -1
M  END
>  <ID>  (590) 


>  <MOLENAME>  (590) 
NITROFURANTOIN

>  <therap>  (590) 
antibacterial

>  <ref>  (590) 
Anal Profiles Drug Subs 5:345 (1976); Am J Obstet Gynecol 191:182 (2004)

>  <cas#>  (590) 
67-20-9, 54-87-5 [nitrofurantoin sodium], 17140-81-7 [monohydrate]

>  <source>  (590) 
synthetic

>  <status>  (590) 
USP, INN, BAN, JAN

>  <tradename>  (590) 
FURADANTIN

>  <SMILES>  (590) 
O=C1CN(/N=C/c2ccc([N+](=O)[O-])o2)C(=O)N1

>  <standardized_failed>  (590) 
False

$$$$

     RDKit          2D

  6  5  0  0  0  0  0  0  0  0999 V2000
    6.7167   -2.4667    0.0000 C   0  0  0  0  0  0  0  0  0  0  0  0
    7.4292   -2.8792    0.0000 S   0  0  0  0  0  0  0  0  0  0  0  0
    6.0042   -2.0542    0.0000 N   0  0  0  0  0  0  0  0  0  0  0  0
    4.5792   -2.0542    0.0000 C   0  0  0  0  0  0  0  0  0  0  0  0
    3.8667   -1.6417    0.0000 C   0  0  0  0  0  0  0  0  0  0  0  0
    5.2917   -1.6417    0.0000 C   0  0  0  0  0  0  0  0  0  0  0  0
  2  1  2  0
  3  1  2  0
  4  6  1  0
  5  4  2  0
  6  3  1  0
M  END
>  <ID>  (591) 


>  <MOLENAME>  (591) 
ALLYLISOTHIOCYANATE

>  <therap>  (591) 
counterirritant

>  <ref>  (591) 
Lancet 2:1060 (1953); Food Cosmet Toxicl 2:327 (1964)

>  <cas#>  (591) 
57-06-7

>  <source>  (591) 
Brassica nigra

>  <status>  (591) 
USP

>  <tradename>  (591) 
nan

>  <SMILES>  (591) 
C=CCN=C=S

>  <standardized_failed>  (591) 
False

$$$$

     RDKit          2D

 13 14  0  0  0  0  0  0  0  0999 V2000
    4.2917   -6.5375    0.0000 C   0  0  0  0  0  0  0  0  0  0  0  0
    3.5792   -6.9542    0.0000 C   0  0  0  0  0  0  0  0  0  0  0  0
    4.2917   -5.7125    0.0000 C   0  0  0  0  0  0  0  0  0  0  0  0
    2.8667   -6.5417    0.0000 C   0  0  0  0  0  0  0  0  0  0  0  0
    3.5792   -5.3000    0.0000 C   0  0  0  0  0  0  0  0  0  0  0  0
    2.8667   -5.7125    0.0000 C   0  0  0  0  0  0  0  0  0  0  0  0
    5.0125   -6.9500    0.0000 N   0  0  0  0  0  0  0  0  0  0  0  0
    3.5792   -7.7792    0.0000 O   0  0  0  0  0  0  0  0  0  0  0  0
    2.1500   -6.9542    0.0000 I   0  0  0  0  0  0  0  0  0  0  0  0
    3.5750   -4.4750    0.0000 Cl  0  0  0  0  0  0  0  0  0  0  0  0
    5.0042   -5.2917    0.0000 C   0  0  0  0  0  0  0  0  0  0  0  0
    5.7250   -6.5292    0.0000 C   0  0  0  0  0  0  0  0  0  0  0  0
    5.7167   -5.7042    0.0000 C   0  0  0  0  0  0  0  0  0  0  0  0
  2  1  2  0
  3  1  1  0
  4  2  1  0
  5  3  2  0
  6  5  1  0
  7  1  1  0
  8  2  1  0
  9  4  1  0
 10  5  1  0
 11  3  1  0
 12  7  2  0
 13 12  1  0
 13 11  2  0
  4  6  2  0
M  END
>  <ID>  (592) 


>  <MOLENAME>  (592) 
CLIOQUINOL

>  <therap>  (592) 
antiseptic, antiamebic

>  <ref>  (592) 
Curr. Med. Chem. (2003), 3(4), 309-315; Int. J. Dermatol. (1977), 16(4), 267-73; Am. J. Med. Sci. (1947), 213(5), 608-10

>  <cas#>  (592) 
130-26-7

>  <source>  (592) 
synthetic

>  <status>  (592) 
USP, INN, BAN

>  <tradename>  (592) 
VIOFORM

>  <SMILES>  (592) 
Oc1c2ncccc2c(Cl)cc1I

>  <standardized_failed>  (592) 
False

$$$$

     RDKit          2D

 27 30  0  0  0  0  0  0  0  0999 V2000
    5.9542   -3.7917    0.0000 C   0  0  0  0  0  0  0  0  0  0  0  0
    5.9542   -2.9625    0.0000 C   0  0  0  0  0  0  0  0  0  0  0  0
    5.1667   -4.0417    0.0000 N   0  0  0  0  0  0  0  0  0  0  0  0
    6.6667   -4.2042    0.0000 C   0  0  0  0  0  0  0  0  0  0  0  0
    7.3792   -5.4417    0.0000 C   0  0  0  0  0  0  0  0  0  0  0  0
    7.3792   -3.7917    0.0000 N   0  0  0  0  0  0  0  0  0  0  0  0
    7.3792   -6.2750    0.0000 C   0  0  0  0  0  0  0  0  0  0  0  0
    6.6667   -5.0292    0.0000 C   0  0  0  0  0  0  0  0  0  0  0  0
    5.1667   -2.7042    0.0000 C   0  0  0  0  0  0  0  0  0  0  0  0
    4.6875   -3.3750    0.0000 C   0  0  0  0  0  0  0  0  0  0  0  0
    8.1000   -5.0292    0.0000 C   0  0  0  0  0  0  0  0  0  0  0  0
    6.6625   -6.7000    0.0000 C   0  0  0  0  0  0  0  0  0  0  0  0
    8.1000   -4.2042    0.0000 C   0  0  0  0  0  0  0  0  0  0  0  0
    6.6667   -2.5500    0.0000 C   0  0  0  0  0  0  0  0  0  0  0  0
    7.3792   -2.9625    0.0000 C   0  0  0  0  0  0  0  0  0  0  0  0
    8.0917   -6.6875    0.0000 C   0  0  0  0  0  0  0  0  0  0  0  0
    5.9375   -6.2917    0.0000 O   0  0  0  0  0  0  0  0  0  0  0  0
    8.8167   -5.4417    0.0000 C   0  0  0  0  0  0  0  0  0  0  0  0
    8.8167   -6.2750    0.0000 C   0  0  0  0  0  0  0  0  0  0  0  0
    6.6750   -7.5292    0.0000 O   0  0  0  0  0  0  0  0  0  0  0  0
    8.0875   -7.5125    0.0000 O   0  0  0  0  0  0  0  0  0  0  0  0
    8.7625   -3.2417    0.0000 Cl  0  0  0  0  0  0  0  0  0  0  0  0
    4.8292   -1.9542    0.0000 C   0  0  0  0  0  0  0  0  0  0  0  0
    3.8667   -3.2875    0.0000 C   0  0  0  0  0  0  0  0  0  0  0  0
    7.3917   -7.9375    0.0000 C   0  0  0  0  0  0  0  0  0  0  0  0
    4.0125   -1.8667    0.0000 C   0  0  0  0  0  0  0  0  0  0  0  0
    3.5292   -2.5292    0.0000 C   0  0  0  0  0  0  0  0  0  0  0  0
  2  1  2  0
  3  1  1  0
  4  1  1  0
  5  8  1  1
  6  4  1  0
  5  7  1  0
  4  8  1  1
  9  2  1  0
 10  3  1  0
 11  5  1  0
 12  7  1  0
 13  6  1  0
 14  2  1  0
 15  6  1  0
 16  7  1  0
 17 12  2  0
 11 18  1  6
 19 18  1  0
 20 12  1  0
 16 21  1  6
 23  9  2  0
 24 10  2  0
 25 20  1  0
 26 23  1  0
 27 24  1  0
  9 10  1  0
 15 14  1  0
 11 13  1  0
 26 27  2  0
 16 19  1  0
M  END
>  <ID>  (593) 


>  <MOLENAME>  (593) 
YOHIMBINE HYDROCHLORIDE

>  <therap>  (593) 
alpha adrenergic blocker, mydriatic, antidepressant

>  <ref>  (593) 
J Chem Soc 1950: 1534; Alkaloids 2: 406 (1952); Pharmacol Rev 35: 143 (1983)

>  <cas#>  (593) 
65-19-0

>  <source>  (593) 
Corynanthe spp

>  <status>  (593) 
USP, ban

>  <tradename>  (593) 
nan

>  <SMILES>  (593) 
COC(=O)C1[C@@H](O)CC[C@H]2CN3CCc4c([nH]c5ccccc45)[C@@H]3C[C@H]12

>  <standardized_failed>  (593) 
False

$$$$

     RDKit          2D

 23 25  0  0  0  0  0  0  0  0999 V2000
    5.6792   -0.8500    0.0000 N   0  0  0  0  0  0  0  0  0  0  0  0
    5.8625   -1.7042    0.0000 C   0  0  0  0  0  0  0  0  0  0  0  0
    4.9667   -0.6250    0.0000 C   0  0  0  0  0  0  0  0  0  0  0  0
    4.9667    0.1750    0.0000 C   0  0  0  0  0  0  0  0  0  0  0  0
    5.6792    0.4000    0.0000 N   0  0  0  0  0  0  0  0  0  0  0  0
    6.6417   -1.9667    0.0000 C   0  0  0  0  0  0  0  0  0  0  0  0
    6.1167   -0.2125    0.0000 C   0  0  0  0  0  0  0  0  0  0  0  0
    5.3792   -2.3750    0.0000 O   0  0  0  0  0  0  0  0  0  0  0  0
    5.8625   -3.0375    0.0000 C   0  0  0  0  0  0  0  0  0  0  0  0
    6.6417   -2.7917    0.0000 C   0  0  0  0  0  0  0  0  0  0  0  0
    5.9375   -5.2167    0.0000 P   0  0  0  0  0  0  0  0  0  0  0  0
    4.3167    0.5500    0.0000 C   0  0  0  0  0  0  0  0  0  0  0  0
    4.2292   -1.0500    0.0000 N   0  0  0  0  0  0  0  0  0  0  0  0
    3.6667    0.1750    0.0000 N   0  0  0  0  0  0  0  0  0  0  0  0
    5.6167   -3.8292    0.0000 C   0  0  0  0  0  0  0  0  0  0  0  0
    3.6667   -0.5750    0.0000 C   0  0  0  0  0  0  0  0  0  0  0  0
    6.1792   -4.4292    0.0000 O   0  0  0  0  0  0  0  0  0  0  0  0
    5.6917   -6.0125    0.0000 O   0  0  0  0  0  0  0  0  0  0  0  0
    7.3167   -1.4792    0.0000 O   0  0  0  0  0  0  0  0  0  0  0  0
    5.1417   -4.9792    0.0000 O   0  0  0  0  0  0  0  0  0  0  0  0
    6.7250   -5.4667    0.0000 O   0  0  0  0  0  0  0  0  0  0  0  0
    4.3542    1.4000    0.0000 N   0  0  0  0  0  0  0  0  0  0  0  0
    7.3000   -3.2792    0.0000 O   0  0  0  0  0  0  0  0  0  0  0  0
  2  1  1  0
  3  1  1  0
  4  3  2  0
  5  7  2  0
  6  2  1  0
  7  1  1  0
  8  2  1  0
  9  8  1  0
 10  6  1  0
 11 17  1  0
 12  4  1  0
 13  3  1  0
 14 16  1  0
  9 15  1  1
 16 13  2  0
 17 15  1  0
 18 11  2  0
  6 19  1  6
 20 11  1  0
 21 11  1  0
 22 12  1  0
 10 23  1  6
  4  5  1  0
 10  9  1  0
 14 12  2  0
M  END
>  <ID>  (594) 


>  <MOLENAME>  (594) 
ADENOSINE PHOSPHATE

>  <therap>  (594) 
vasodilator, neuromodulator

>  <ref>  (594) 
Biochem J 36:113 (1942); J Chem Edu 46:198 (1971)

>  <cas#>  (594) 
61-19-8

>  <source>  (594) 
widespread in living tissue

>  <status>  (594) 
USAN, INN, BAN

>  <tradename>  (594) 
ADENYL

>  <SMILES>  (594) 
Nc1ncnc2c1ncn2C1O[C@H](COP(=O)(O)O)[C@@H](O)[C@H]1O

>  <standardized_failed>  (594) 
False

$$$$

     RDKit          2D

 30 32  0  0  0  0  0  0  0  0999 V2000
    4.6875   -4.2375    0.0000 C   0  0  0  0  0  0  0  0  0  0  0  0
    3.8875   -4.4167    0.0000 C   0  0  0  0  0  0  0  0  0  0  0  0
    5.0417   -3.5000    0.0000 C   0  0  0  0  0  0  0  0  0  0  0  0
    4.6875   -2.7542    0.0000 C   0  0  0  0  0  0  0  0  0  0  0  0
    3.2417   -3.9042    0.0000 C   0  0  0  0  0  0  0  0  0  0  0  0
    3.8875   -5.2417    0.0000 C   0  0  0  0  0  0  0  0  0  0  0  0
    3.2417   -3.0792    0.0000 C   0  0  0  0  0  0  0  0  0  0  0  0
    5.8667   -3.6125    0.0000 S   0  0  0  0  0  0  0  0  0  0  0  0
    3.8875   -2.5667    0.0000 C   0  0  0  0  0  0  0  0  0  0  0  0
    5.2917   -4.8042    0.0000 C   0  0  0  0  0  0  0  0  0  0  0  0
    3.8875   -6.9000    0.0000 N   0  0  0  0  0  0  0  0  0  0  0  0
    9.2667   -5.6542    0.0000 C   0  0  0  0  0  0  0  0  0  0  0  0
    7.4875   -5.3125    0.0000 C   0  0  0  0  0  0  0  0  0  0  0  0
    8.0792   -5.6542    0.0000 C   0  0  0  0  0  0  0  0  0  0  0  0
    8.6750   -5.3125    0.0000 C   0  0  0  0  0  0  0  0  0  0  0  0
    6.0042   -4.4167    0.0000 C   0  0  0  0  0  0  0  0  0  0  0  0
    5.2000   -2.0917    0.0000 O   0  0  0  0  0  0  0  0  0  0  0  0
    4.6042   -5.6542    0.0000 C   0  0  0  0  0  0  0  0  0  0  0  0
    3.1750   -5.6542    0.0000 C   0  0  0  0  0  0  0  0  0  0  0  0
    9.2625   -6.3417    0.0000 O   0  0  0  0  0  0  0  0  0  0  0  0
    7.4875   -4.6250    0.0000 O   0  0  0  0  0  0  0  0  0  0  0  0
    3.1750   -6.4875    0.0000 C   0  0  0  0  0  0  0  0  0  0  0  0
    4.6042   -6.4875    0.0000 C   0  0  0  0  0  0  0  0  0  0  0  0
    9.8542   -5.3125    0.0000 O   0  0  0  0  0  0  0  0  0  0  0  0
    6.8917   -5.6542    0.0000 O   0  0  0  0  0  0  0  0  0  0  0  0
    2.5292   -4.3167    0.0000 C   0  0  0  0  0  0  0  0  0  0  0  0
    2.5292   -2.6667    0.0000 C   0  0  0  0  0  0  0  0  0  0  0  0
    3.8875   -7.7250    0.0000 C   0  0  0  0  0  0  0  0  0  0  0  0
    1.8167   -3.9042    0.0000 C   0  0  0  0  0  0  0  0  0  0  0  0
    1.8167   -3.0792    0.0000 C   0  0  0  0  0  0  0  0  0  0  0  0
  2  1  1  0
  3  1  2  0
  4  3  1  0
  5  2  1  0
  6  2  2  0
  7  5  2  0
  8  3  1  0
  9  4  1  0
 10  1  1  0
 11 22  1  0
 13 14  1  0
 14 15  2  0
 15 12  1  0
 16 10  2  0
 17  4  2  0
 18  6  1  0
 19  6  1  0
 20 12  2  0
 21 13  2  0
 22 19  1  0
 23 18  1  0
 24 12  1  0
 25 13  1  0
 26  5  1  0
 27  7  1  0
 28 11  1  0
 29 26  2  0
 30 27  2  0
  8 16  1  0
  7  9  1  0
 11 23  1  0
 30 29  1  0
M  END
>  <ID>  (595) 


>  <MOLENAME>  (595) 
KETOTIFEN FUMARATE

>  <therap>  (595) 
antiasthmatic

>  <ref>  (595) 
Respiration (1984), 45(4), 411-21; Arzneim. Forsch. (1978), 28(5), 770-82; Helv. Chim. Acta (1976), 59(3), 866-77

>  <cas#>  (595) 
34580-14-8, 34580-13-7 [ketotifen]

>  <source>  (595) 
synthetic; HC-20511

>  <status>  (595) 
USAN, INN, BAN, JAN

>  <tradename>  (595) 
ZADITOR

>  <SMILES>  (595) 
CN1CCC(=C2c3c(cccc3)CC(=O)c3c2ccs3)CC1

>  <standardized_failed>  (595) 
False

$$$$

     RDKit          2D

 12 10  0  0  0  0  0  0  0  0999 V2000
    4.7417   -4.1542    0.0000 N   0  0  0  0  0  0  0  0  0  0  0  0
    5.4042   -4.5375    0.0000 C   0  0  0  0  0  0  0  0  0  0  0  0
    7.5542   -4.2292    0.0000 N   0  0  0  0  0  0  0  0  0  0  0  0
    4.7042   -3.0542    0.0000 Cl  0  0  0  0  0  0  0  0  0  0  0  0
    7.4792   -3.0292    0.0000 Cl  0  0  0  0  0  0  0  0  0  0  0  0
    6.1292   -4.1625    0.0000 C   0  0  0  0  0  0  0  0  0  0  0  0
    4.1042   -4.5375    0.0000 C   0  0  0  0  0  0  0  0  0  0  0  0
    6.8167   -4.6042    0.0000 C   0  0  0  0  0  0  0  0  0  0  0  0
    8.2417   -4.6792    0.0000 C   0  0  0  0  0  0  0  0  0  0  0  0
    5.4042   -5.2917    0.0000 C   0  0  0  0  0  0  0  0  0  0  0  0
    4.1042   -5.2917    0.0000 C   0  0  0  0  0  0  0  0  0  0  0  0
    4.7417   -5.6667    0.0000 C   0  0  0  0  0  0  0  0  0  0  0  0
  2  1  2  0
  3  8  1  0
  6  2  1  0
  7  1  1  0
  8  6  1  0
  9  3  1  0
 10  2  1  0
 11  7  2  0
 12 11  1  0
 10 12  2  0
M  END
>  <ID>  (596) 


>  <MOLENAME>  (596) 
BETAHISTINE HYDROCHLORIDE

>  <therap>  (596) 
vasodilator

>  <ref>  (596) 
Clin Med 74:41 (1967); Postgrad Med J 52:501 (1976); J Laryngol Otol 90:833 (1976)

>  <cas#>  (596) 
5579-84-0, 5638-76-6 [betahistine]

>  <source>  (596) 
synthetic

>  <status>  (596) 
USAN, INN, BAN, JAN

>  <tradename>  (596) 
SERC

>  <SMILES>  (596) 
CNCCc1ncccc1

>  <standardized_failed>  (596) 
False

$$$$

     RDKit          2D

 21 21  0  0  0  0  0  0  0  0999 V2000
   -0.5125   -3.1417    0.0000 N   0  0  0  0  0  0  0  0  0  0  0  0
    0.2042   -2.7292    0.0000 C   0  0  0  0  0  0  0  0  0  0  0  0
    4.6500   -2.7042    0.0000 N   0  0  0  0  0  0  0  0  0  0  0  0
    5.4667   -2.7917    0.0000 C   0  0  0  0  0  0  0  0  0  0  0  0
    4.4792   -1.9000    0.0000 C   0  0  0  0  0  0  0  0  0  0  0  0
    5.8000   -2.0417    0.0000 S   0  0  0  0  0  0  0  0  0  0  0  0
    0.2042   -1.9042    0.0000 C   0  0  0  0  0  0  0  0  0  0  0  0
    5.1917   -1.4917    0.0000 C   0  0  0  0  0  0  0  0  0  0  0  0
   -1.2333   -2.7250    0.0000 O   0  0  0  0  0  0  0  0  0  0  0  0
   -0.5125   -3.9625    0.0000 O   0  0  0  0  0  0  0  0  0  0  0  0
    5.8792   -3.5042    0.0000 C   0  0  0  0  0  0  0  0  0  0  0  0
   -0.5083   -1.4917    0.0000 N   0  0  0  0  0  0  0  0  0  0  0  0
    0.9167   -1.4917    0.0000 N   0  0  0  0  0  0  0  0  0  0  0  0
    6.7000   -3.5042    0.0000 N   0  0  0  0  0  0  0  0  0  0  0  0
    3.0542   -1.9042    0.0000 S   0  0  0  0  0  0  0  0  0  0  0  0
    3.7667   -1.4917    0.0000 C   0  0  0  0  0  0  0  0  0  0  0  0
    1.6292   -1.9042    0.0000 C   0  0  0  0  0  0  0  0  0  0  0  0
    2.3417   -1.4917    0.0000 C   0  0  0  0  0  0  0  0  0  0  0  0
    7.1125   -4.2167    0.0000 C   0  0  0  0  0  0  0  0  0  0  0  0
    7.1042   -2.7875    0.0000 C   0  0  0  0  0  0  0  0  0  0  0  0
   -0.5083   -0.6667    0.0000 C   0  0  0  0  0  0  0  0  0  0  0  0
  2  1  1  0
  3  5  1  0
  4  3  2  0
  5 16  1  0
  6  8  1  0
  7  2  2  0
  8  5  2  0
  9  1  1  0
 10  1  2  0
 11  4  1  0
 12  7  1  0
 13  7  1  0
 14 11  1  0
 15 18  1  0
 16 15  1  0
 17 13  1  0
 18 17  1  0
 19 14  1  0
 20 14  1  0
 21 12  1  0
  6  4  1  0
M  CHG  2   1   1   9  -1
M  END
>  <ID>  (597) 


>  <MOLENAME>  (597) 
NIZATIDINE

>  <therap>  (597) 
antiulcer, H2 antagonist

>  <ref>  (597) 
Clin Pharmacol Ther 37:162 (1985); Arzneim Forsch 39:240 (1989)

>  <cas#>  (597) 
76963-41-2

>  <source>  (597) 
synthetic; LY-139037

>  <status>  (597) 
USP, INN, BAN, JAN

>  <tradename>  (597) 
AXID

>  <SMILES>  (597) 
CN/C(=C\[N+](=O)[O-])NCCSCc1csc(CN(C)C)n1

>  <standardized_failed>  (597) 
False

$$$$

     RDKit          2D

 23 24  0  0  0  0  0  0  0  0999 V2000
    9.1042   -6.9542    0.0000 C   0  0  0  0  0  0  0  0  0  0  0  0
    9.1042   -6.2042    0.0000 C   0  0  0  0  0  0  0  0  0  0  0  0
    8.4625   -7.3375    0.0000 C   0  0  0  0  0  0  0  0  0  0  0  0
    7.8125   -6.9625    0.0000 C   0  0  0  0  0  0  0  0  0  0  0  0
    7.8125   -6.2125    0.0000 C   0  0  0  0  0  0  0  0  0  0  0  0
    8.4625   -5.8375    0.0000 C   0  0  0  0  0  0  0  0  0  0  0  0
    9.8167   -7.1875    0.0000 C   0  0  0  0  0  0  0  0  0  0  0  0
   10.2542   -6.5917    0.0000 O   0  0  0  0  0  0  0  0  0  0  0  0
    9.8167   -5.9792    0.0000 C   0  0  0  0  0  0  0  0  0  0  0  0
    7.1542   -7.3375    0.0000 C   0  0  0  0  0  0  0  0  0  0  0  0
    6.5042   -6.9625    0.0000 C   0  0  0  0  0  0  0  0  0  0  0  0
    3.9042   -6.9625    0.0000 C   0  0  0  0  0  0  0  0  0  0  0  0
   10.0542   -7.9042    0.0000 O   0  0  0  0  0  0  0  0  0  0  0  0
    5.8542   -7.3417    0.0000 C   0  0  0  0  0  0  0  0  0  0  0  0
    3.9042   -6.2125    0.0000 O   0  0  0  0  0  0  0  0  0  0  0  0
    8.4625   -8.0875    0.0000 O   0  0  0  0  0  0  0  0  0  0  0  0
    7.1542   -5.8292    0.0000 O   0  0  0  0  0  0  0  0  0  0  0  0
    4.5542   -7.3417    0.0000 C   0  0  0  0  0  0  0  0  0  0  0  0
    5.2042   -6.9625    0.0000 C   0  0  0  0  0  0  0  0  0  0  0  0
    3.2625   -7.3417    0.0000 O   0  0  0  0  0  0  0  0  0  0  0  0
    8.4625   -5.0792    0.0000 C   0  0  0  0  0  0  0  0  0  0  0  0
    5.8542   -8.0875    0.0000 C   0  0  0  0  0  0  0  0  0  0  0  0
    6.5042   -6.2042    0.0000 C   0  0  0  0  0  0  0  0  0  0  0  0
  2  1  1  0
  3  1  2  0
  4  3  1  0
  5  4  2  0
  6  2  2  0
  7  1  1  0
  8  7  1  0
  9  2  1  0
 10  4  1  0
 11 10  1  0
 12 18  1  0
 13  7  2  0
 14 11  2  0
 15 12  2  0
 16  3  1  0
 17  5  1  0
 18 19  1  0
 19 14  1  0
 20 12  1  0
 21  6  1  0
 22 14  1  0
 23 17  1  0
  9  8  1  0
  5  6  1  0
M  END
>  <ID>  (598) 


>  <MOLENAME>  (598) 
MYCOPHENOLIC ACID

>  <therap>  (598) 
immune suppressant, antineoplastic, antiviral

>  <ref>  (598) 
Biochem J 26:1411 (1932); J Antibiot 22:358 (1969); Transplant Proc 26:3205 (1994); Virology 304:211 (2002)

>  <cas#>  (598) 
24280-93-1

>  <source>  (598) 
Penicillium brevicompactum, other Penicillium spp.; 68618

>  <status>  (598) 
USAN, INN, BAN

>  <tradename>  (598) 
MYFORTIC

>  <SMILES>  (598) 
COc1c(C/C=C(\C)CCC(=O)O)c(O)c2C(=O)OCc2c1C

>  <standardized_failed>  (598) 
False

$$$$

     RDKit          2D

 29 32  0  0  0  0  0  0  0  0999 V2000
    5.4625   -1.8125    0.0000 C   0  0  0  0  0  0  0  0  0  0  0  0
    6.2417   -1.5667    0.0000 C   0  0  0  0  0  0  0  0  0  0  0  0
    3.3042   -3.8542    0.0000 C   0  0  0  0  0  0  0  0  0  0  0  0
    3.3125   -3.0292    0.0000 C   0  0  0  0  0  0  0  0  0  0  0  0
    5.4542   -2.6375    0.0000 C   0  0  0  0  0  0  0  0  0  0  0  0
    4.7292   -3.0417    0.0000 C   0  0  0  0  0  0  0  0  0  0  0  0
    6.7167   -2.2375    0.0000 C   0  0  0  0  0  0  0  0  0  0  0  0
    4.7375   -3.8625    0.0000 C   0  0  0  0  0  0  0  0  0  0  0  0
    4.0250   -2.6167    0.0000 C   0  0  0  0  0  0  0  0  0  0  0  0
    4.0167   -4.2667    0.0000 C   0  0  0  0  0  0  0  0  0  0  0  0
    6.2292   -2.9000    0.0000 C   0  0  0  0  0  0  0  0  0  0  0  0
    2.6000   -4.2667    0.0000 C   0  0  0  0  0  0  0  0  0  0  0  0
    4.7542   -1.3917    0.0000 C   0  0  0  0  0  0  0  0  0  0  0  0
    7.0417   -1.3500    0.0000 O   0  0  0  0  0  0  0  0  0  0  0  0
    4.0292   -1.7917    0.0000 C   0  0  0  0  0  0  0  0  0  0  0  0
    2.6000   -2.6167    0.0000 C   0  0  0  0  0  0  0  0  0  0  0  0
    6.2417   -0.7417    0.0000 C   0  0  0  0  0  0  0  0  0  0  0  0
    7.8667   -1.3500    0.0000 C   0  0  0  0  0  0  0  0  0  0  0  0
    1.8917   -3.8542    0.0000 C   0  0  0  0  0  0  0  0  0  0  0  0
    7.5417   -2.2417    0.0000 C   0  0  0  0  0  0  0  0  0  0  0  0
    8.2792   -0.6292    0.0000 O   0  0  0  0  0  0  0  0  0  0  0  0
    5.5167   -0.3292    0.0000 O   0  0  0  0  0  0  0  0  0  0  0  0
    1.1750   -4.2667    0.0000 O   0  0  0  0  0  0  0  0  0  0  0  0
    5.4542   -0.9875    0.0000 C   0  0  0  0  0  0  0  0  0  0  0  0
    1.8917   -3.0292    0.0000 C   0  0  0  0  0  0  0  0  0  0  0  0
    3.3042   -2.2042    0.0000 C   0  0  0  0  0  0  0  0  0  0  0  0
    4.0125   -5.0917    0.0000 C   0  0  0  0  0  0  0  0  0  0  0  0
    8.2792   -2.0625    0.0000 C   0  0  0  0  0  0  0  0  0  0  0  0
    6.9500   -0.3167    0.0000 C   0  0  0  0  0  0  0  0  0  0  0  0
  2  1  1  0
  3  4  1  0
  4  9  1  0
  5  1  1  0
  6  5  1  0
  7  2  1  0
  8  6  1  0
  9 15  1  0
 10  8  2  0
 11  5  1  0
 12  3  2  0
 13  1  1  0
  2 14  1  6
 15 13  1  0
 16  4  1  0
  2 17  1  0
 18 14  1  0
 19 25  1  0
 20  7  2  0
 21 18  2  0
 22 17  2  0
 23 19  2  0
  1 24  1  1
 25 16  1  0
  4 26  1  1
 27 10  1  0
 28 18  1  0
 29 17  1  0
  7 11  1  0
  9  6  1  0
 10  3  1  0
 19 12  1  0
M  END
>  <ID>  (599) 


>  <MOLENAME>  (599) 
MELENGESTROL ACETATE

>  <therap>  (599) 
antineoplastic, progestin

>  <ref>  (599) 
J. Food, Agric. Environ. (2009), 7(2), 202-208; Tetrahedron (1965), 21(7), 1753-60; Proc. R. Soc. Med. (1962), 55, 861-3

>  <cas#>  (599) 
2919-66-6

>  <source>  (599) 
semisynthetic; BDH-1921,  5373, NSC-70968

>  <status>  (599) 
USAN, INN, BAN

>  <tradename>  (599) 
nan

>  <SMILES>  (599) 
C=C1CC2C3C=C(C)C4=CC(=O)CC[C@]4(C)C3CC[C@]2(C)[C@@]1(OC(C)=O)C(C)=O

>  <standardized_failed>  (599) 
False

$$$$

     RDKit          2D

 41 46  0  0  0  0  0  0  0  0999 V2000
    6.3792   -7.7792    0.0000 C   0  0  0  0  0  0  0  0  0  0  0  0
    8.5250   -6.5417    0.0000 C   0  0  0  0  0  0  0  0  0  0  0  0
    8.5250   -7.3667    0.0000 C   0  0  0  0  0  0  0  0  0  0  0  0
    7.0917   -7.3667    0.0000 C   0  0  0  0  0  0  0  0  0  0  0  0
    6.3792   -8.6042    0.0000 C   0  0  0  0  0  0  0  0  0  0  0  0
    7.8042   -7.7792    0.0000 C   0  0  0  0  0  0  0  0  0  0  0  0
    3.5042   -8.6167    0.0000 C   0  0  0  0  0  0  0  0  0  0  0  0
    2.7917   -9.0292    0.0000 C   0  0  0  0  0  0  0  0  0  0  0  0
    2.0667   -8.6250    0.0000 C   0  0  0  0  0  0  0  0  0  0  0  0
    9.3042   -6.2875    0.0000 C   0  0  0  0  0  0  0  0  0  0  0  0
    3.5042   -7.7917    0.0000 O   0  0  0  0  0  0  0  0  0  0  0  0
    9.4375   -5.4750    0.0000 C   0  0  0  0  0  0  0  0  0  0  0  0
    5.6667   -7.3667    0.0000 C   0  0  0  0  0  0  0  0  0  0  0  0
    7.0917   -6.5417    0.0000 C   0  0  0  0  0  0  0  0  0  0  0  0
    7.8042   -6.1292    0.0000 C   0  0  0  0  0  0  0  0  0  0  0  0
    2.0667   -7.7917    0.0000 C   0  0  0  0  0  0  0  0  0  0  0  0
    8.8250   -4.9125    0.0000 C   0  0  0  0  0  0  0  0  0  0  0  0
    2.7917   -7.3792    0.0000 C   0  0  0  0  0  0  0  0  0  0  0  0
    5.6667   -9.0167    0.0000 C   0  0  0  0  0  0  0  0  0  0  0  0
    9.1667   -4.1667    0.0000 C   0  0  0  0  0  0  0  0  0  0  0  0
    9.3042   -7.6250    0.0000 C   0  0  0  0  0  0  0  0  0  0  0  0
    4.2292   -9.0292    0.0000 O   0  0  0  0  0  0  0  0  0  0  0  0
    4.9500   -8.6042    0.0000 C   0  0  0  0  0  0  0  0  0  0  0  0
    4.9500   -7.7792    0.0000 C   0  0  0  0  0  0  0  0  0  0  0  0
    7.8042   -8.6042    0.0000 C   0  0  0  0  0  0  0  0  0  0  0  0
    9.9792   -4.2542    0.0000 O   0  0  0  0  0  0  0  0  0  0  0  0
    9.7917   -6.9542    0.0000 C   0  0  0  0  0  0  0  0  0  0  0  0
    7.0917   -9.0167    0.0000 C   0  0  0  0  0  0  0  0  0  0  0  0
   10.1417   -5.0667    0.0000 C   0  0  0  0  0  0  0  0  0  0  0  0
    8.7542   -3.4417    0.0000 O   0  0  0  0  0  0  0  0  0  0  0  0
    8.5125   -8.0250    0.0000 O   0  0  0  0  0  0  0  0  0  0  0  0
    6.3792   -9.4375    0.0000 O   0  0  0  0  0  0  0  0  0  0  0  0
    6.3792   -6.9542    0.0000 C   0  0  0  0  0  0  0  0  0  0  0  0
    2.8042   -9.8542    0.0000 O   0  0  0  0  0  0  0  0  0  0  0  0
    1.3542   -9.0500    0.0000 O   0  0  0  0  0  0  0  0  0  0  0  0
    1.3292   -7.3875    0.0000 O   0  0  0  0  0  0  0  0  0  0  0  0
    8.4792   -5.7125    0.0000 C   0  0  0  0  0  0  0  0  0  0  0  0
    5.0167   -6.9000    0.0000 O   0  0  0  0  0  0  0  0  0  0  0  0
    6.3667   -6.1167    0.0000 O   0  0  0  0  0  0  0  0  0  0  0  0
    5.8292   -6.5875    0.0000 O   0  0  0  0  0  0  0  0  0  0  0  0
    2.8000   -6.5542    0.0000 C   0  0  0  0  0  0  0  0  0  0  0  0
  2 15  1  0
  3  6  1  0
  4  1  1  0
  5  1  1  0
  6  4  1  0
  7 22  1  1
  8  7  1  0
  9  8  1  0
 10  2  1  0
 11  7  1  0
 10 12  1  0
 13  1  1  0
 14  4  1  0
 15 14  1  0
 16 18  1  0
 17 12  2  0
 18 11  1  0
 19  5  1  0
 20 17  1  0
 21  3  1  0
 23 22  1  1
 23 24  1  0
 24 13  1  0
 25 28  1  0
 26 29  1  0
 27 21  1  0
 28  5  1  0
 29 12  1  0
 30 20  2  0
  3 31  1  1
  5 32  1  1
  1 33  1  1
  8 34  1  6
  9 35  1  6
 16 36  1  1
  2 37  1  1
 13 38  1  1
 14 39  1  6
 40 33  1  0
 18 41  1  6
 19 23  1  0
  6 25  1  0
  2  3  1  0
 10 27  1  1
 16  9  1  0
 20 26  1  0
M  END
>  <ID>  (600) 


>  <MOLENAME>  (600) 
OUABAIN

>  <therap>  (600) 
antiarrhythmic, cardiotonic, hypertensive, Na/K ATPase inhibitor

>  <ref>  (600) 
Ann Rev Biochem 15: 155 (1946); Helv Chim Acta 42: 1418 (1959); 45: 1244 (1962); 50: 2299 (1967)

>  <cas#>  (600) 
11018-89-6, 630-60-4 [anhydrous]

>  <source>  (600) 
Acokanthera and Strophanthus spp

>  <status>  (600) 
USP-XX, JAN

>  <tradename>  (600) 
nan

>  <SMILES>  (600) 
C[C@@H]1O[C@@H](O[C@H]2C[C@@H](O)[C@]3(CO)C4C(CC[C@]3(O)C2)[C@@]2(O)CC[C@H](C3=CC(=O)OC3)[C@@]2(C)C[C@H]4O)[C@H](O)[C@H](O)[C@H]1O

>  <standardized_failed>  (600) 
False

$$$$

     RDKit          2D

 29 32  0  0  0  0  0  0  0  0999 V2000
    3.3875   -2.2542    0.0000 N   0  0  0  0  0  0  0  0  0  0  0  0
    4.8167   -2.2542    0.0000 C   0  0  0  0  0  0  0  0  0  0  0  0
    4.1042   -2.6667    0.0000 C   0  0  0  0  0  0  0  0  0  0  0  0
    3.3875   -1.4292    0.0000 C   0  0  0  0  0  0  0  0  0  0  0  0
    4.0917   -1.0167    0.0000 N   0  0  0  0  0  0  0  0  0  0  0  0
    4.8125   -1.4250    0.0000 C   0  0  0  0  0  0  0  0  0  0  0  0
    5.5292   -2.6625    0.0000 C   0  0  0  0  0  0  0  0  0  0  0  0
    8.3917   -5.1292    0.0000 C   0  0  0  0  0  0  0  0  0  0  0  0
    6.2542   -3.9000    0.0000 N   0  0  0  0  0  0  0  0  0  0  0  0
    2.6667   -2.6750    0.0000 C   0  0  0  0  0  0  0  0  0  0  0  0
    4.1000   -3.4917    0.0000 O   0  0  0  0  0  0  0  0  0  0  0  0
    2.6667   -1.0167    0.0000 C   0  0  0  0  0  0  0  0  0  0  0  0
    9.1042   -4.7167    0.0000 C   0  0  0  0  0  0  0  0  0  0  0  0
    7.6792   -4.7167    0.0000 C   0  0  0  0  0  0  0  0  0  0  0  0
    8.3917   -5.9542    0.0000 O   0  0  0  0  0  0  0  0  0  0  0  0
    1.9542   -2.2625    0.0000 C   0  0  0  0  0  0  0  0  0  0  0  0
    1.9542   -1.4375    0.0000 C   0  0  0  0  0  0  0  0  0  0  0  0
    5.5375   -3.4875    0.0000 C   0  0  0  0  0  0  0  0  0  0  0  0
    9.1042   -3.9000    0.0000 C   0  0  0  0  0  0  0  0  0  0  0  0
    9.8167   -5.1292    0.0000 C   0  0  0  0  0  0  0  0  0  0  0  0
    6.9667   -5.1292    0.0000 C   0  0  0  0  0  0  0  0  0  0  0  0
    7.6792   -3.8917    0.0000 C   0  0  0  0  0  0  0  0  0  0  0  0
    6.2542   -4.7250    0.0000 C   0  0  0  0  0  0  0  0  0  0  0  0
    6.9625   -3.4792    0.0000 C   0  0  0  0  0  0  0  0  0  0  0  0
   10.5375   -3.8917    0.0000 C   0  0  0  0  0  0  0  0  0  0  0  0
   10.5375   -4.7167    0.0000 C   0  0  0  0  0  0  0  0  0  0  0  0
    9.8167   -3.4792    0.0000 C   0  0  0  0  0  0  0  0  0  0  0  0
    5.5250   -1.0042    0.0000 C   0  0  0  0  0  0  0  0  0  0  0  0
   11.2500   -3.4792    0.0000 F   0  0  0  0  0  0  0  0  0  0  0  0
  2  3  1  0
  3  1  1  0
  4  1  1  0
  5  4  2  0
  6  5  1  0
  7  2  1  0
  8 14  1  0
  9 18  1  0
 10  1  1  0
 11  3  2  0
 12  4  1  0
 13  8  1  0
 14 22  1  0
 15  8  2  0
 16 10  2  0
 17 16  1  0
 18  7  1  0
 19 13  2  0
 20 13  1  0
 21 23  1  0
 22 24  1  0
 23  9  1  0
 24  9  1  0
 25 26  1  0
 26 20  2  0
 27 19  1  0
 28  6  1  0
 29 25  1  0
 17 12  2  0
  6  2  2  0
 14 21  1  0
 25 27  2  0
M  END
>  <ID>  (601) 


>  <MOLENAME>  (601) 
PIRENPERONE

>  <therap>  (601) 
5HT2 receptor antagonist

>  <ref>  (601) 
Psychopharmacol 119: 222 (1995)

>  <cas#>  (601) 
75444-65-4

>  <source>  (601) 
synthetic; R-47465

>  <status>  (601) 
USAN, INN, BAN

>  <tradename>  (601) 
nan

>  <SMILES>  (601) 
Cc1c(CCN2CCC(C(=O)c3ccc(F)cc3)CC2)c(=O)n2ccccc2n1

>  <standardized_failed>  (601) 
False

$$$$

     RDKit          2D

 25 26  0  0  0  0  0  0  0  0999 V2000
    5.6292   -6.3042    0.0000 C   0  0  0  0  0  0  0  0  0  0  0  0
    6.9292   -6.3042    0.0000 C   0  0  0  0  0  0  0  0  0  0  0  0
    6.2792   -6.6792    0.0000 C   0  0  0  0  0  0  0  0  0  0  0  0
    5.6292   -5.5542    0.0000 C   0  0  0  0  0  0  0  0  0  0  0  0
    6.9292   -5.5542    0.0000 C   0  0  0  0  0  0  0  0  0  0  0  0
    6.2792   -5.1792    0.0000 N   0  0  0  0  0  0  0  0  0  0  0  0
    7.6417   -7.6875    0.0000 N   0  0  0  0  0  0  0  0  0  0  0  0
    6.2542   -7.6417    0.0000 C   0  0  0  0  0  0  0  0  0  0  0  0
    6.9542   -8.0292    0.0000 C   0  0  0  0  0  0  0  0  0  0  0  0
    7.3667   -6.5667    0.0000 C   0  0  0  0  0  0  0  0  0  0  0  0
    4.9792   -6.6875    0.0000 C   0  0  0  0  0  0  0  0  0  0  0  0
    7.6417   -8.3667    0.0000 O   0  0  0  0  0  0  0  0  0  0  0  0
    8.4167   -7.6875    0.0000 O   0  0  0  0  0  0  0  0  0  0  0  0
    4.9792   -7.1250    0.0000 O   0  0  0  0  0  0  0  0  0  0  0  0
    7.3542   -7.0292    0.0000 O   0  0  0  0  0  0  0  0  0  0  0  0
    4.3167   -6.3167    0.0000 O   0  0  0  0  0  0  0  0  0  0  0  0
    8.0417   -6.2167    0.0000 O   0  0  0  0  0  0  0  0  0  0  0  0
    7.5167   -5.2792    0.0000 C   0  0  0  0  0  0  0  0  0  0  0  0
    4.9792   -5.1750    0.0000 C   0  0  0  0  0  0  0  0  0  0  0  0
    5.6292   -8.0625    0.0000 C   0  0  0  0  0  0  0  0  0  0  0  0
    6.9542   -8.8042    0.0000 C   0  0  0  0  0  0  0  0  0  0  0  0
    3.6667   -6.7000    0.0000 C   0  0  0  0  0  0  0  0  0  0  0  0
    8.7292   -6.7167    0.0000 C   0  0  0  0  0  0  0  0  0  0  0  0
    5.6417   -8.8042    0.0000 C   0  0  0  0  0  0  0  0  0  0  0  0
    6.3542   -9.1375    0.0000 C   0  0  0  0  0  0  0  0  0  0  0  0
  2  3  1  0
  3  1  1  0
  4  1  2  0
  5  6  1  0
  6  4  1  0
  7  9  1  0
  8  3  1  0
  9  8  2  0
 10  2  1  0
 11  1  1  0
 12  7  1  0
 13  7  2  0
 14 11  2  0
 15 10  2  0
 16 11  1  0
 17 10  1  0
 18  5  1  0
 19  4  1  0
 20  8  1  0
 21  9  1  0
 22 16  1  0
 23 17  1  0
 24 20  2  0
 25 24  1  0
  5  2  2  0
 25 21  2  0
M  CHG  2   7   1  12  -1
M  END
>  <ID>  (602) 


>  <MOLENAME>  (602) 
NIFEDIPINE

>  <therap>  (602) 
antianginal, antihypertensive

>  <ref>  (602) 
Angiology (1982), 33(8), 492-515; Arzneim. Forsch. (1972), 22(1), 22-33; Arzneim. Forsch. (1972), 22(1), 1-14

>  <cas#>  (602) 
21829-25-4

>  <source>  (602) 
synthetic; Bay-A1040

>  <status>  (602) 
USP, INN, BAN, JAN

>  <tradename>  (602) 
ADALAT

>  <SMILES>  (602) 
COC(=O)C1=C(C)NC(C)=C(C(=O)OC)C1c1c([N+](=O)[O-])cccc1

>  <standardized_failed>  (602) 
False

$$$$

     RDKit          2D

 14 14  0  0  0  0  0  0  0  0999 V2000
    3.2042   -2.8875    0.0000 N   0  0  0  0  0  0  0  0  0  0  0  0
    3.2542   -2.2667    0.0000 C   0  0  0  0  0  0  0  0  0  0  0  0
    3.8542   -3.2667    0.0000 C   0  0  0  0  0  0  0  0  0  0  0  0
    4.9875   -2.9625    0.0000 C   0  0  0  0  0  0  0  0  0  0  0  0
    2.9667   -1.5167    0.0000 C   0  0  0  0  0  0  0  0  0  0  0  0
    3.8625   -2.1167    0.0000 O   0  0  0  0  0  0  0  0  0  0  0  0
    4.9875   -2.2750    0.0000 O   0  0  0  0  0  0  0  0  0  0  0  0
    2.5667   -3.2667    0.0000 C   0  0  0  0  0  0  0  0  0  0  0  0
    5.6417   -3.4292    0.0000 O   0  0  0  0  0  0  0  0  0  0  0  0
    1.2042   -2.2750    0.0000 S   0  0  0  0  0  0  0  0  0  0  0  0
    1.9292   -1.5250    0.0000 C   0  0  0  0  0  0  0  0  0  0  0  0
    3.8542   -4.0167    0.0000 C   0  0  0  0  0  0  0  0  0  0  0  0
    2.5667   -4.0167    0.0000 C   0  0  0  0  0  0  0  0  0  0  0  0
    3.4417   -0.8000    0.0000 C   0  0  0  0  0  0  0  0  0  0  0  0
  2  1  1  0
  3  1  1  0
  3  4  1  6
  5  2  1  0
  6  2  2  0
  7  4  2  0
  8  1  1  0
  9  4  1  0
 10 11  1  0
 11  5  1  0
 12  3  1  0
 13  8  1  0
  5 14  1  1
 12 13  1  0
M  END
>  <ID>  (603) 


>  <MOLENAME>  (603) 
CAPTOPRIL

>  <therap>  (603) 
antihypertensive

>  <ref>  (603) 
Eur J Pharmacol 51:277 ()978); Postgrad Med J 62 Suppl1:1 (1986)

>  <cas#>  (603) 
62571-86-2

>  <source>  (603) 
synthetic

>  <status>  (603) 
USP, INN, BAN, JAN

>  <tradename>  (603) 
CAPOTEN

>  <SMILES>  (603) 
C[C@H](CS)C(=O)N1CCC[C@H]1C(=O)O

>  <standardized_failed>  (603) 
False

$$$$

     RDKit          2D

  8  7  0  0  0  0  0  0  0  0999 V2000
    3.4542   -2.3042    0.0000 C   0  0  0  0  0  0  0  0  0  0  0  0
    5.5917   -2.7167    0.0000 C   0  0  0  0  0  0  0  0  0  0  0  0
    2.7417   -2.7167    0.0000 F   0  0  0  0  0  0  0  0  0  0  0  0
    3.4542   -1.4792    0.0000 F   0  0  0  0  0  0  0  0  0  0  0  0
    2.7417   -1.8917    0.0000 F   0  0  0  0  0  0  0  0  0  0  0  0
    6.3042   -2.3042    0.0000 C   0  0  0  0  0  0  0  0  0  0  0  0
    4.1667   -2.7167    0.0000 C   0  0  0  0  0  0  0  0  0  0  0  0
    4.8792   -2.3042    0.0000 O   0  0  0  0  0  0  0  0  0  0  0  0
  2  8  1  0
  3  1  1  0
  4  1  1  0
  5  1  1  0
  6  2  2  0
  7  1  1  0
  8  7  1  0
M  END
>  <ID>  (604) 


>  <MOLENAME>  (604) 
FLUROXENE

>  <therap>  (604) 
anesthetic

>  <ref>  (604) 
Crit. Rev. Toxicol. (1988), 19(2), 87-112; Anesthesiology (1953), 14, 466-72; J. Pharmacol. Exp. Ther. (1953), 108, 488-95

>  <cas#>  (604) 
406-90-6

>  <source>  (604) 
synthetic

>  <status>  (604) 
USAN, NF-XIV, INN

>  <tradename>  (604) 
FLUOROMAR

>  <SMILES>  (604) 
C=COCC(F)(F)F

>  <standardized_failed>  (604) 
False

$$$$

     RDKit          2D

 30 31  0  0  0  0  0  0  0  0999 V2000
    6.6167   -5.4417    0.0000 C   0  0  0  0  0  0  0  0  0  0  0  0
    6.2625   -6.1792    0.0000 C   0  0  0  0  0  0  0  0  0  0  0  0
    5.4625   -6.3625    0.0000 N   0  0  0  0  0  0  0  0  0  0  0  0
    5.4625   -4.5042    0.0000 S   0  0  0  0  0  0  0  0  0  0  0  0
    6.2625   -4.6917    0.0000 C   0  0  0  0  0  0  0  0  0  0  0  0
    4.8167   -5.8500    0.0000 C   0  0  0  0  0  0  0  0  0  0  0  0
    4.8167   -5.0250    0.0000 C   0  0  0  0  0  0  0  0  0  0  0  0
    7.4417   -5.4500    0.0000 O   0  0  0  0  0  0  0  0  0  0  0  0
    5.2792   -7.1750    0.0000 C   0  0  0  0  0  0  0  0  0  0  0  0
    6.7292   -4.0042    0.0000 C   0  0  0  0  0  0  0  0  0  0  0  0
    7.8542   -6.1667    0.0000 C   0  0  0  0  0  0  0  0  0  0  0  0
    6.7750   -6.8292    0.0000 O   0  0  0  0  0  0  0  0  0  0  0  0
    8.6792   -6.1667    0.0000 O   0  0  0  0  0  0  0  0  0  0  0  0
    6.3667   -3.2667    0.0000 C   0  0  0  0  0  0  0  0  0  0  0  0
    7.5542   -4.0667    0.0000 C   0  0  0  0  0  0  0  0  0  0  0  0
    4.4917   -7.4250    0.0000 C   0  0  0  0  0  0  0  0  0  0  0  0
    4.3125   -8.2292    0.0000 N   0  0  0  0  0  0  0  0  0  0  0  0
    7.6542   -2.6500    0.0000 C   0  0  0  0  0  0  0  0  0  0  0  0
    8.0167   -3.3917    0.0000 C   0  0  0  0  0  0  0  0  0  0  0  0
    6.8292   -2.5875    0.0000 C   0  0  0  0  0  0  0  0  0  0  0  0
    5.6667   -8.1500    0.0000 Cl  0  0  0  0  0  0  0  0  0  0  0  0
    4.1042   -6.2625    0.0000 C   0  0  0  0  0  0  0  0  0  0  0  0
    8.1292   -1.9625    0.0000 O   0  0  0  0  0  0  0  0  0  0  0  0
    4.1042   -4.6125    0.0000 C   0  0  0  0  0  0  0  0  0  0  0  0
    7.4375   -6.8792    0.0000 C   0  0  0  0  0  0  0  0  0  0  0  0
    3.5292   -8.4750    0.0000 C   0  0  0  0  0  0  0  0  0  0  0  0
    4.9167   -8.7917    0.0000 C   0  0  0  0  0  0  0  0  0  0  0  0
    8.9542   -2.0250    0.0000 C   0  0  0  0  0  0  0  0  0  0  0  0
    3.3917   -5.8500    0.0000 C   0  0  0  0  0  0  0  0  0  0  0  0
    3.3917   -5.0250    0.0000 C   0  0  0  0  0  0  0  0  0  0  0  0
  2  1  1  0
  3  2  1  0
  4  5  1  0
  5  1  1  0
  6  3  1  0
  7  4  1  0
  8  1  1  0
  9  3  1  0
 10  5  1  0
 11  8  1  0
 12  2  2  0
 13 11  2  0
 14 10  2  0
 15 10  1  0
 16  9  1  0
 17 16  1  0
 18 19  1  0
 19 15  2  0
 20 14  1  0
 22  6  2  0
 23 18  1  0
 24  7  2  0
 25 11  1  0
 26 17  1  0
 27 17  1  0
 28 23  1  0
 29 22  1  0
 30 24  1  0
  6  7  1  0
 20 18  2  0
 29 30  2  0
M  END
>  <ID>  (605) 


>  <MOLENAME>  (605) 
DILTIAZEM HYDROCHLORIDE

>  <therap>  (605) 
Ca channel blocker, coronary vasodilator

>  <ref>  (605) 
Circulation Res. (1983), 52(2 Pt 2), I104-9; Chem. Pharm. Bull. (1973), 21(1), 92-7; Arzneim. Forsch. (1971), 21(9), 1338-43

>  <cas#>  (605) 
33286-22-5, 42399-41-7 [diltiazem]

>  <source>  (605) 
synthetic; RG-83606

>  <status>  (605) 
USP, INN, BAN, JAN

>  <tradename>  (605) 
CARDIZEM

>  <SMILES>  (605) 
COc1ccc(C2Sc3ccccc3N(CCN(C)C)C(=O)C2OC(C)=O)cc1

>  <standardized_failed>  (605) 
False

$$$$

     RDKit          2D

 28 32  0  0  0  0  0  0  0  0999 V2000
    6.2625   -3.2292    0.0000 C   0  0  0  0  0  0  0  0  0  0  0  0
    7.0875   -3.2417    0.0000 C   0  0  0  0  0  0  0  0  0  0  0  0
    6.0125   -2.4542    0.0000 C   0  0  0  0  0  0  0  0  0  0  0  0
    6.6750   -1.9667    0.0000 C   0  0  0  0  0  0  0  0  0  0  0  0
    7.3417   -2.4542    0.0000 O   0  0  0  0  0  0  0  0  0  0  0  0
    5.9542   -0.7292    0.0000 C   0  0  0  0  0  0  0  0  0  0  0  0
    6.6750   -1.1417    0.0000 C   0  0  0  0  0  0  0  0  0  0  0  0
    5.7125   -3.8417    0.0000 C   0  0  0  0  0  0  0  0  0  0  0  0
    7.4000   -0.7292    0.0000 N   0  0  0  0  0  0  0  0  0  0  0  0
    5.9625    0.1083    0.0000 C   0  0  0  0  0  0  0  0  0  0  0  0
    5.2417   -1.1292    0.0000 C   0  0  0  0  0  0  0  0  0  0  0  0
    4.5292   -0.7167    0.0000 C   0  0  0  0  0  0  0  0  0  0  0  0
    4.5292    0.1083    0.0000 C   0  0  0  0  0  0  0  0  0  0  0  0
    5.2042   -2.2792    0.0000 C   0  0  0  0  0  0  0  0  0  0  0  0
    5.2417    0.5208    0.0000 C   0  0  0  0  0  0  0  0  0  0  0  0
    7.5667   -3.9042    0.0000 O   0  0  0  0  0  0  0  0  0  0  0  0
    3.7417   -0.9667    0.0000 O   0  0  0  0  0  0  0  0  0  0  0  0
    3.7417    0.3708    0.0000 O   0  0  0  0  0  0  0  0  0  0  0  0
    4.9125   -3.6667    0.0000 C   0  0  0  0  0  0  0  0  0  0  0  0
    3.2542   -0.3042    0.0000 C   0  0  0  0  0  0  0  0  0  0  0  0
    7.4000    0.1083    0.0000 C   0  0  0  0  0  0  0  0  0  0  0  0
    6.6792    0.5333    0.0000 C   0  0  0  0  0  0  0  0  0  0  0  0
    4.6542   -2.8917    0.0000 C   0  0  0  0  0  0  0  0  0  0  0  0
    5.9667   -4.6292    0.0000 O   0  0  0  0  0  0  0  0  0  0  0  0
    4.3542   -4.2792    0.0000 O   0  0  0  0  0  0  0  0  0  0  0  0
    8.1125   -1.1417    0.0000 C   0  0  0  0  0  0  0  0  0  0  0  0
    5.4167   -5.2417    0.0000 C   0  0  0  0  0  0  0  0  0  0  0  0
    3.5542   -4.1167    0.0000 C   0  0  0  0  0  0  0  0  0  0  0  0
  2  1  1  0
  3  1  2  0
  4  3  1  0
  5  2  1  0
  6  7  1  0
  7  4  1  0
  8  1  1  0
  7  9  1  1
 10  6  2  0
 11  6  1  0
 12 11  2  0
 13 12  1  0
 14  3  1  0
 15 10  1  0
 16  2  2  0
 17 12  1  0
 18 13  1  0
 19  8  2  0
 20 17  1  0
 21  9  1  0
 22 21  1  0
 23 19  1  0
 24  8  1  0
 25 19  1  0
 26  9  1  0
 27 24  1  0
 28 25  1  0
  4  5  1  1
 23 14  2  0
 22 10  1  0
 15 13  2  0
 20 18  1  0
M  END
>  <ID>  (606) 


>  <MOLENAME>  (606) 
HYDRASTINE (1R. 9S)

>  <therap>  (606) 
antihypertensive, sedative, antibacterial

>  <ref>  (606) 
J Nat Prod 45:105 (1982)

>  <cas#>  (606) 
118-08-1

>  <source>  (606) 
Corydalis spp 

>  <status>  (606) 
USP-IX

>  <tradename>  (606) 
nan

>  <SMILES>  (606) 
COc1c(OC)c2c(cc1)[C@@H]([C@H]1c3c(cc4OCOc4c3)CCN1C)OC2=O

>  <standardized_failed>  (606) 
False

$$$$

     RDKit          2D

 18 17  0  0  0  0  0  0  0  0999 V2000
    5.2375   -4.5875    0.0000 C   0  0  0  0  0  0  0  0  0  0  0  0
    5.9875   -4.5875    0.0000 N   0  0  0  0  0  0  0  0  0  0  0  0
    6.3625   -5.2292    0.0000 C   0  0  0  0  0  0  0  0  0  0  0  0
    4.8625   -5.2292    0.0000 C   0  0  0  0  0  0  0  0  0  0  0  0
    4.8625   -3.9375    0.0000 C   0  0  0  0  0  0  0  0  0  0  0  0
    5.9875   -5.8792    0.0000 O   0  0  0  0  0  0  0  0  0  0  0  0
    7.1125   -5.2292    0.0000 C   0  0  0  0  0  0  0  0  0  0  0  0
    7.4875   -5.8792    0.0000 N   0  0  0  0  0  0  0  0  0  0  0  0
    8.3250   -4.9292    0.0000 Cl  0  0  0  0  0  0  0  0  0  0  0  0
    3.7375   -4.5875    0.0000 C   0  0  0  0  0  0  0  0  0  0  0  0
    4.1125   -3.9375    0.0000 C   0  0  0  0  0  0  0  0  0  0  0  0
    4.1125   -5.2292    0.0000 C   0  0  0  0  0  0  0  0  0  0  0  0
    5.2375   -5.8875    0.0000 C   0  0  0  0  0  0  0  0  0  0  0  0
    5.2375   -3.2792    0.0000 C   0  0  0  0  0  0  0  0  0  0  0  0
    8.2375   -5.8792    0.0000 C   0  0  0  0  0  0  0  0  0  0  0  0
    7.1125   -6.5292    0.0000 C   0  0  0  0  0  0  0  0  0  0  0  0
    8.6125   -6.5250    0.0000 C   0  0  0  0  0  0  0  0  0  0  0  0
    6.3625   -6.5292    0.0000 C   0  0  0  0  0  0  0  0  0  0  0  0
  2  1  1  0
  3  2  1  0
  4  1  2  0
  5  1  1  0
  6  3  2  0
  7  3  1  0
  8  7  1  0
 10 11  1  0
 11  5  2  0
 12  4  1  0
 13  4  1  0
 14  5  1  0
 15  8  1  0
 16  8  1  0
 17 15  1  0
 18 16  1  0
 12 10  2  0
M  END
>  <ID>  (607) 


>  <MOLENAME>  (607) 
LIDOCAINE HYDROCHLORIDE

>  <therap>  (607) 
anesthetic (local), antiarrhythmic

>  <ref>  (607) 
J Pharmacol Exp Ther 179:580 (1971); Drugs 64:937 (2004)

>  <cas#>  (607) 
6108-05-0, 73-78-9 [anhydrous], 137-58-6 [lidocaine]

>  <source>  (607) 
synthetic

>  <status>  (607) 
USP, INN, JAN

>  <tradename>  (607) 
XYLOCAINE

>  <SMILES>  (607) 
CCN(CC)CC(=O)Nc1c(C)cccc1C

>  <standardized_failed>  (607) 
False

$$$$

     RDKit          2D

 22 23  0  0  0  0  0  0  0  0999 V2000
    5.4917   -4.8542    0.0000 N   0  0  0  0  0  0  0  0  0  0  0  0
    4.8292   -3.7292    0.0000 C   0  0  0  0  0  0  0  0  0  0  0  0
    5.5000   -5.6042    0.0000 C   0  0  0  0  0  0  0  0  0  0  0  0
    4.2667   -3.2250    0.0000 N   0  0  0  0  0  0  0  0  0  0  0  0
    6.1500   -5.9792    0.0000 C   0  0  0  0  0  0  0  0  0  0  0  0
    4.8375   -4.4792    0.0000 C   0  0  0  0  0  0  0  0  0  0  0  0
    5.4750   -3.3542    0.0000 N   0  0  0  0  0  0  0  0  0  0  0  0
    6.1417   -4.4667    0.0000 C   0  0  0  0  0  0  0  0  0  0  0  0
    6.7917   -4.8417    0.0000 C   0  0  0  0  0  0  0  0  0  0  0  0
    6.1417   -3.7167    0.0000 C   0  0  0  0  0  0  0  0  0  0  0  0
    6.1500   -6.7292    0.0000 C   0  0  0  0  0  0  0  0  0  0  0  0
    7.4417   -4.4667    0.0000 C   0  0  0  0  0  0  0  0  0  0  0  0
    6.7917   -3.3417    0.0000 C   0  0  0  0  0  0  0  0  0  0  0  0
    7.4417   -3.7167    0.0000 C   0  0  0  0  0  0  0  0  0  0  0  0
    3.6125   -4.6167    0.0000 Cl  0  0  0  0  0  0  0  0  0  0  0  0
    6.8042   -7.1125    0.0000 O   0  0  0  0  0  0  0  0  0  0  0  0
    4.8542   -5.9792    0.0000 C   0  0  0  0  0  0  0  0  0  0  0  0
    4.5792   -2.5417    0.0000 C   0  0  0  0  0  0  0  0  0  0  0  0
    5.3167   -2.6167    0.0000 C   0  0  0  0  0  0  0  0  0  0  0  0
    4.8542   -6.7292    0.0000 C   0  0  0  0  0  0  0  0  0  0  0  0
    5.5000   -7.1042    0.0000 C   0  0  0  0  0  0  0  0  0  0  0  0
    8.0917   -3.3417    0.0000 C   0  0  0  0  0  0  0  0  0  0  0  0
  2  6  1  0
  3  1  1  0
  4  2  2  0
  5  3  2  0
  6  1  1  0
  7  2  1  0
  8  1  1  0
  9  8  2  0
 10  8  1  0
 11  5  1  0
 12  9  1  0
 13 10  2  0
 14 13  1  0
 16 11  1  0
 17  3  1  0
 18  4  1  0
 19  7  1  0
 20 17  2  0
 21 20  1  0
 22 14  1  0
 14 12  2  0
 18 19  1  0
 11 21  2  0
M  END
>  <ID>  (608) 


>  <MOLENAME>  (608) 
PHENTOLAMINE HYDROCHLORIDE

>  <therap>  (608) 
antihypertensive

>  <ref>  (608) 
Am Heart J 92:397 (1976); J Urol 157:2132 (1997)

>  <cas#>  (608) 
73-05-2, 50-60-2 [phentolamine]

>  <source>  (608) 
synthetic

>  <status>  (608) 
USP-XX, INN, BAN

>  <tradename>  (608) 
REGITINE

>  <SMILES>  (608) 
Cc1ccc(N(CC2=NCCN2)c2cc(O)ccc2)cc1

>  <standardized_failed>  (608) 
False

$$$$

     RDKit          2D

 14 14  0  0  0  0  0  0  0  0999 V2000
    3.8000   -2.0625    0.0000 C   0  0  0  0  0  0  0  0  0  0  0  0
    2.9792   -2.0625    0.0000 C   0  0  0  0  0  0  0  0  0  0  0  0
    4.2042   -1.3417    0.0000 O   0  0  0  0  0  0  0  0  0  0  0  0
    2.5667   -2.7750    0.0000 C   0  0  0  0  0  0  0  0  0  0  0  0
    2.5667   -1.3500    0.0000 C   0  0  0  0  0  0  0  0  0  0  0  0
    1.3292   -2.0667    0.0000 C   0  0  0  0  0  0  0  0  0  0  0  0
    4.2125   -2.7750    0.0000 O   0  0  0  0  0  0  0  0  0  0  0  0
    0.5042   -2.0667    0.0000 N   0  0  0  0  0  0  0  0  0  0  0  0
    1.7417   -1.3542    0.0000 C   0  0  0  0  0  0  0  0  0  0  0  0
    1.7417   -2.7750    0.0000 C   0  0  0  0  0  0  0  0  0  0  0  0
    5.0292   -2.7750    0.0000 C   0  0  0  0  0  0  0  0  0  0  0  0
    5.4417   -3.4875    0.0000 C   0  0  0  0  0  0  0  0  0  0  0  0
    6.2667   -3.4875    0.0000 C   0  0  0  0  0  0  0  0  0  0  0  0
    6.6792   -4.1917    0.0000 C   0  0  0  0  0  0  0  0  0  0  0  0
  2  1  1  0
  3  1  2  0
  4  2  2  0
  5  2  1  0
  6  9  1  0
  7  1  1  0
  8  6  1  0
  9  5  2  0
 10  4  1  0
 11  7  1  0
 12 11  1  0
 13 12  1  0
 14 13  1  0
  6 10  2  0
M  END
>  <ID>  (609) 


>  <MOLENAME>  (609) 
BUTAMBEN

>  <therap>  (609) 
anesthetic (local); inhibitor of DRG IA/Kv4.2 current

>  <ref>  (609) 
J Pharmacol.Exp Ther 304:531 (2003); 314:1177 (2005); Anesth Analg 106:1778 (2008)

>  <cas#>  (609) 
94-25-7

>  <source>  (609) 
synthetic

>  <status>  (609) 
USP

>  <tradename>  (609) 
BUTESIN

>  <SMILES>  (609) 
CCCCOC(=O)c1ccc(N)cc1

>  <standardized_failed>  (609) 
False

$$$$

     RDKit          2D

 24 26  0  0  0  0  0  0  0  0999 V2000
    5.3292   -2.0042    0.0000 N   0  0  0  0  0  0  0  0  0  0  0  0
    4.6125   -1.6000    0.0000 C   0  0  0  0  0  0  0  0  0  0  0  0
    4.2042   -2.3167    0.0000 C   0  0  0  0  0  0  0  0  0  0  0  0
    4.9167   -2.7250    0.0000 C   0  0  0  0  0  0  0  0  0  0  0  0
    6.1417   -2.0042    0.0000 C   0  0  0  0  0  0  0  0  0  0  0  0
    3.4917   -2.7292    0.0000 N   0  0  0  0  0  0  0  0  0  0  0  0
    5.3292   -3.4292    0.0000 S   0  0  0  0  0  0  0  0  0  0  0  0
    2.7792   -2.3167    0.0000 C   0  0  0  0  0  0  0  0  0  0  0  0
    6.5542   -2.7167    0.0000 C   0  0  0  0  0  0  0  0  0  0  0  0
    6.5542   -1.2875    0.0000 C   0  0  0  0  0  0  0  0  0  0  0  0
    2.0667   -2.7292    0.0000 C   0  0  0  0  0  0  0  0  0  0  0  0
    6.1500   -3.4292    0.0000 C   0  0  0  0  0  0  0  0  0  0  0  0
    4.4000   -0.8042    0.0000 O   0  0  0  0  0  0  0  0  0  0  0  0
    2.7792   -1.4917    0.0000 O   0  0  0  0  0  0  0  0  0  0  0  0
    6.1375   -0.5750    0.0000 O   0  0  0  0  0  0  0  0  0  0  0  0
    1.3542   -2.3250    0.0000 C   0  0  0  0  0  0  0  0  0  0  0  0
    7.3792   -2.7125    0.0000 Cl  0  0  0  0  0  0  0  0  0  0  0  0
    2.0667   -3.5542    0.0000 N   0  0  0  0  0  0  0  0  0  0  0  0
    7.3792   -1.2792    0.0000 O   0  0  0  0  0  0  0  0  0  0  0  0
    0.6417   -2.7375    0.0000 C   0  0  0  0  0  0  0  0  0  0  0  0
    1.3542   -1.4917    0.0000 C   0  0  0  0  0  0  0  0  0  0  0  0
   -0.0708   -2.3250    0.0000 C   0  0  0  0  0  0  0  0  0  0  0  0
    0.6417   -1.0792    0.0000 C   0  0  0  0  0  0  0  0  0  0  0  0
   -0.0708   -1.5000    0.0000 C   0  0  0  0  0  0  0  0  0  0  0  0
  2  1  1  0
  3  4  1  0
  4  1  1  0
  5  1  1  0
  3  6  1  6
  4  7  1  6
  8  6  1  0
  9  5  2  0
 10  5  1  0
 11  8  1  0
 12  9  1  0
 13  2  2  0
 14  8  2  0
 15 10  2  0
 16 11  1  0
 17  9  1  0
 11 18  1  6
 19 10  1  0
 20 16  2  0
 21 16  1  0
 22 20  1  0
 23 21  2  0
 24 23  1  0
  2  3  1  0
  7 12  1  0
 24 22  2  0
M  END
>  <ID>  (610) 


>  <MOLENAME>  (610) 
CEFACLOR

>  <therap>  (610) 
antibacterial

>  <ref>  (610) 
Antimicrob Agents Chemother 14:454, 614 (1978);  J Antimicrob Chemother 4:343 (1978)

>  <cas#>  (610) 
70356-03-5, 53994-73-3 [anhydrous]

>  <source>  (610) 
semisynthetic

>  <status>  (610) 
USP, INN, BAN, JAN

>  <tradename>  (610) 
CECLOR

>  <SMILES>  (610) 
N[C@@H](C(=O)N[C@@H]1C(=O)N2C(C(=O)O)=C(Cl)CS[C@H]12)c1ccccc1

>  <standardized_failed>  (610) 
False

$$$$

     RDKit          2D

 21 21  0  0  0  0  0  0  0  0999 V2000
    5.9917   -2.7667    0.0000 C   0  0  0  0  0  0  0  0  0  0  0  0
    4.7542   -2.0625    0.0000 C   0  0  0  0  0  0  0  0  0  0  0  0
    5.9792   -1.3417    0.0000 C   0  0  0  0  0  0  0  0  0  0  0  0
    5.1667   -2.7750    0.0000 C   0  0  0  0  0  0  0  0  0  0  0  0
    6.4000   -2.0542    0.0000 C   0  0  0  0  0  0  0  0  0  0  0  0
    5.1542   -1.3417    0.0000 C   0  0  0  0  0  0  0  0  0  0  0  0
    6.4042   -3.4792    0.0000 C   0  0  0  0  0  0  0  0  0  0  0  0
    3.9292   -2.0625    0.0000 N   0  0  0  0  0  0  0  0  0  0  0  0
    6.3792   -0.6167    0.0000 C   0  0  0  0  0  0  0  0  0  0  0  0
    3.5125   -1.3500    0.0000 C   0  0  0  0  0  0  0  0  0  0  0  0
    7.6167    0.1083    0.0000 C   0  0  0  0  0  0  0  0  0  0  0  0
    7.2042   -0.6167    0.0000 N   0  0  0  0  0  0  0  0  0  0  0  0
    5.9917   -4.1917    0.0000 O   0  0  0  0  0  0  0  0  0  0  0  0
    7.2250   -2.0500    0.0000 I   0  0  0  0  0  0  0  0  0  0  0  0
    4.7542   -3.4917    0.0000 I   0  0  0  0  0  0  0  0  0  0  0  0
    3.9167   -0.6292    0.0000 O   0  0  0  0  0  0  0  0  0  0  0  0
    7.2000    0.8125    0.0000 O   0  0  0  0  0  0  0  0  0  0  0  0
    4.7375   -0.6375    0.0000 I   0  0  0  0  0  0  0  0  0  0  0  0
    7.2292   -3.4792    0.0000 O   0  0  0  0  0  0  0  0  0  0  0  0
    2.6875   -1.3542    0.0000 C   0  0  0  0  0  0  0  0  0  0  0  0
    8.4417    0.1083    0.0000 C   0  0  0  0  0  0  0  0  0  0  0  0
  2  4  1  0
  3  5  2  0
  4  1  2  0
  5  1  1  0
  6  3  1  0
  7  1  1  0
  8  2  1  0
  9  3  1  0
 10  8  1  0
 11 12  1  0
 12  9  1  0
 13  7  2  0
 14  5  1  0
 15  4  1  0
 16 10  2  0
 17 11  2  0
 18  6  1  0
 19  7  1  0
 20 10  1  0
 21 11  1  0
  6  2  2  0
M  END
>  <ID>  (611) 


>  <MOLENAME>  (611) 
IODIPAMIDE

>  <therap>  (611) 
radioopaque agent

>  <ref>  (611) 
Proc. R. Soc. Med. (1971), 64(3), 243-9; Am. Surg. (1956), 22(12), 1225-32; Am. J. Dig. Dis. (1956), 1(11), 466-75

>  <cas#>  (611) 
606-17-7, 2618-26-0 [iodipamide sodium]

>  <source>  (611) 
synthetic; L-isomer: spectrum

>  <status>  (611) 
USAN, INN, BAN, JAN

>  <tradename>  (611) 
CHOLOGRAFIN

>  <SMILES>  (611) 
CC(=O)NCc1c(I)c(C(=O)O)c(I)c(NC(C)=O)c1I

>  <standardized_failed>  (611) 
False

$$$$

     RDKit          2D

 14 15  0  0  0  0  0  0  0  0999 V2000
    2.4375   -2.1250    0.0000 S   0  0  0  0  0  0  0  0  0  0  0  0
    3.0875   -1.7500    0.0000 N   0  0  0  0  0  0  0  0  0  0  0  0
    1.7917   -1.7500    0.0000 C   0  0  0  0  0  0  0  0  0  0  0  0
    2.4375   -0.6250    0.0000 N   0  0  0  0  0  0  0  0  0  0  0  0
    3.0875   -1.0000    0.0000 C   0  0  0  0  0  0  0  0  0  0  0  0
    1.7917   -1.0000    0.0000 C   0  0  0  0  0  0  0  0  0  0  0  0
    2.8625   -2.7292    0.0000 O   0  0  0  0  0  0  0  0  0  0  0  0
    1.9042   -2.6542    0.0000 O   0  0  0  0  0  0  0  0  0  0  0  0
    1.1417   -2.1250    0.0000 C   0  0  0  0  0  0  0  0  0  0  0  0
    1.1417   -0.6250    0.0000 C   0  0  0  0  0  0  0  0  0  0  0  0
    0.4917   -1.7500    0.0000 C   0  0  0  0  0  0  0  0  0  0  0  0
    0.4917   -1.0000    0.0000 C   0  0  0  0  0  0  0  0  0  0  0  0
   -0.1583   -2.1292    0.0000 Cl  0  0  0  0  0  0  0  0  0  0  0  0
    3.7417   -0.6167    0.0000 C   0  0  0  0  0  0  0  0  0  0  0  0
  2  1  1  0
  3  1  1  0
  4  6  1  0
  5  2  1  0
  6  3  2  0
  7  1  2  0
  8  1  2  0
  9  3  1  0
 10  6  1  0
 11  9  2  0
 12 11  1  0
 13 11  1  0
 14  5  1  0
  5  4  2  0
 10 12  2  0
M  END
>  <ID>  (612) 


>  <MOLENAME>  (612) 
DIAZOXIDE

>  <therap>  (612) 
antihypertensive, diuretic, activates K channels and AMPA receptors

>  <ref>  (612) 
Curr. Top. Med. Chem. (2006), 6(10), 1031-1047; Ann. N. Y. Acad. Sci. (1968), 150(2), 194-203; Prog. Drug Res. (1969), 13, 101-35

>  <cas#>  (612) 
364-98-7

>  <source>  (612) 
synthetic; Sch-6783; NSC-64198

>  <status>  (612) 
USP, INN, BAN

>  <tradename>  (612) 
nan

>  <SMILES>  (612) 
CC1=Nc2c(cc(Cl)cc2)S(=O)(=O)N1

>  <standardized_failed>  (612) 
False

$$$$

     RDKit          2D

 11 11  0  0  0  0  0  0  0  0999 V2000
    2.9792   -1.7417    0.0000 N   0  0  0  0  0  0  0  0  0  0  0  0
    2.5667   -0.4667    0.0000 N   0  0  0  0  0  0  0  0  0  0  0  0
    3.2375   -0.9542    0.0000 C   0  0  0  0  0  0  0  0  0  0  0  0
    1.9042   -0.9542    0.0000 C   0  0  0  0  0  0  0  0  0  0  0  0
    2.1542   -1.7417    0.0000 C   0  0  0  0  0  0  0  0  0  0  0  0
    1.1167   -0.7000    0.0000 N   0  0  0  0  0  0  0  0  0  0  0  0
    0.9417    0.1083    0.0000 C   0  0  0  0  0  0  0  0  0  0  0  0
    4.0250   -0.7000    0.0000 O   0  0  0  0  0  0  0  0  0  0  0  0
    1.6667   -2.4042    0.0000 O   0  0  0  0  0  0  0  0  0  0  0  0
    1.5542    0.6583    0.0000 O   0  0  0  0  0  0  0  0  0  0  0  0
    0.1625    0.3625    0.0000 N   0  0  0  0  0  0  0  0  0  0  0  0
  2  3  1  0
  3  1  1  0
  4  5  1  0
  5  1  1  0
  6  4  1  0
  7  6  1  0
  8  3  2  0
  9  5  2  0
 10  7  2  0
 11  7  1  0
  2  4  1  0
M  END
>  <ID>  (613) 


>  <MOLENAME>  (613) 
ALLANTOIN

>  <therap>  (613) 
wound healing agent

>  <ref>  (613) 
J Pharmacol Exp Therap 81:1 (1944); Biochem J 312:315 (1995)

>  <cas#>  (613) 
97-59-6

>  <source>  (613) 
allantoic fluid; widely distributed in plants

>  <status>  (613) 
USP, BAN, JAN

>  <tradename>  (613) 
ALCLOXA

>  <SMILES>  (613) 
NC(=O)NC1NC(=O)NC1=O

>  <standardized_failed>  (613) 
False

$$$$

     RDKit          2D

 22 23  0  0  0  0  0  0  0  0999 V2000
    3.0375   -2.2042    0.0000 S   0  0  0  0  0  0  0  0  0  0  0  0
    2.3167   -2.6167    0.0000 C   0  0  0  0  0  0  0  0  0  0  0  0
    3.7542   -2.6167    0.0000 N   0  0  0  0  0  0  0  0  0  0  0  0
    0.1792   -2.2125    0.0000 S   0  0  0  0  0  0  0  0  0  0  0  0
    0.8917   -2.6250    0.0000 C   0  0  0  0  0  0  0  0  0  0  0  0
    2.3167   -3.4417    0.0000 C   0  0  0  0  0  0  0  0  0  0  0  0
    1.6042   -2.2042    0.0000 C   0  0  0  0  0  0  0  0  0  0  0  0
    3.0375   -3.8625    0.0000 N   0  0  0  0  0  0  0  0  0  0  0  0
    3.7542   -3.4500    0.0000 C   0  0  0  0  0  0  0  0  0  0  0  0
    0.8917   -3.4500    0.0000 C   0  0  0  0  0  0  0  0  0  0  0  0
    1.6042   -3.8625    0.0000 C   0  0  0  0  0  0  0  0  0  0  0  0
    3.6167   -1.6167    0.0000 O   0  0  0  0  0  0  0  0  0  0  0  0
    2.4417   -1.6167    0.0000 O   0  0  0  0  0  0  0  0  0  0  0  0
    0.7667   -1.6250    0.0000 O   0  0  0  0  0  0  0  0  0  0  0  0
   -0.4083   -1.6250    0.0000 O   0  0  0  0  0  0  0  0  0  0  0  0
   -0.3833   -2.8167    0.0000 N   0  0  0  0  0  0  0  0  0  0  0  0
    6.6042   -3.4417    0.0000 C   0  0  0  0  0  0  0  0  0  0  0  0
    0.1792   -3.8625    0.0000 Cl  0  0  0  0  0  0  0  0  0  0  0  0
    7.3167   -3.8542    0.0000 C   0  0  0  0  0  0  0  0  0  0  0  0
    5.1792   -3.4500    0.0000 S   0  0  0  0  0  0  0  0  0  0  0  0
    4.4667   -3.8625    0.0000 C   0  0  0  0  0  0  0  0  0  0  0  0
    5.8917   -3.8542    0.0000 C   0  0  0  0  0  0  0  0  0  0  0  0
  2  1  1  0
  3  1  1  0
  4  5  1  0
  5  7  2  0
  6  2  2  0
  7  2  1  0
  8  9  1  0
  9  3  1  0
 10  5  1  0
 11  6  1  0
 12  1  2  0
 13  1  2  0
 14  4  2  0
 15  4  2  0
 16  4  1  0
 17 22  1  0
 18 10  1  0
 19 17  2  0
 20 21  1  0
 21  9  1  0
 22 20  1  0
  6  8  1  0
 10 11  2  0
M  END
>  <ID>  (614) 


>  <MOLENAME>  (614) 
ALTHIAZIDE

>  <therap>  (614) 
diuretic

>  <ref>  (614) 
Curr Ther Res 46:44 (1989)

>  <cas#>  (614) 
5588-16-9

>  <source>  (614) 
synthetic; P-1779

>  <status>  (614) 
USAN, INN

>  <tradename>  (614) 
ALDACTAZINE

>  <SMILES>  (614) 
C=CCSCC1Nc2c(cc(S(N)(=O)=O)c(Cl)c2)S(=O)(=O)N1

>  <standardized_failed>  (614) 
False

$$$$

     RDKit          2D

 10 11  0  0  0  0  0  0  0  0999 V2000
    5.7167   -1.2500    0.0000 C   0  0  0  0  0  0  0  0  0  0  0  0
    5.7167   -2.0750    0.0000 C   0  0  0  0  0  0  0  0  0  0  0  0
    6.5000   -0.9917    0.0000 N   0  0  0  0  0  0  0  0  0  0  0  0
    6.5000   -2.3292    0.0000 N   0  0  0  0  0  0  0  0  0  0  0  0
    5.0042   -0.8375    0.0000 C   0  0  0  0  0  0  0  0  0  0  0  0
    5.0042   -2.4875    0.0000 N   0  0  0  0  0  0  0  0  0  0  0  0
    6.9792   -1.6667    0.0000 C   0  0  0  0  0  0  0  0  0  0  0  0
    4.2875   -1.2500    0.0000 N   0  0  0  0  0  0  0  0  0  0  0  0
    4.2875   -2.0750    0.0000 C   0  0  0  0  0  0  0  0  0  0  0  0
    5.0042   -0.0125    0.0000 N   0  0  0  0  0  0  0  0  0  0  0  0
  2  1  2  0
  3  1  1  0
  4  2  1  0
  5  1  1  0
  6  2  1  0
  7  3  2  0
  8  5  2  0
  9  8  1  0
 10  5  1  0
  4  7  1  0
  9  6  2  0
M  END
>  <ID>  (615) 


>  <MOLENAME>  (615) 
ADENINE

>  <therap>  (615) 
Vitamin B4

>  <ref>  (615) 
Ber 18: 79, 1928 (1885); J Pharmacol Exp Ther 104:20 (1952)

>  <cas#>  (615) 
73-24-5

>  <source>  (615) 
widespread in nature

>  <status>  (615) 
USP, JAN

>  <tradename>  (615) 
LEUCO-4

>  <SMILES>  (615) 
Nc1ncnc2c1nc[nH]2

>  <standardized_failed>  (615) 
False

$$$$

     RDKit          2D

 15 17  0  0  0  0  0  0  0  0999 V2000
    3.8417   -1.8917    0.0000 C   0  0  0  0  0  0  0  0  0  0  0  0
    3.8542   -3.5417    0.0000 N   0  0  0  0  0  0  0  0  0  0  0  0
    3.1375   -2.3042    0.0000 C   0  0  0  0  0  0  0  0  0  0  0  0
    4.5625   -2.3000    0.0000 C   0  0  0  0  0  0  0  0  0  0  0  0
    3.1375   -3.1292    0.0000 C   0  0  0  0  0  0  0  0  0  0  0  0
    4.5667   -3.1292    0.0000 C   0  0  0  0  0  0  0  0  0  0  0  0
    3.8417   -1.0667    0.0000 N   0  0  0  0  0  0  0  0  0  0  0  0
    5.2750   -1.8792    0.0000 C   0  0  0  0  0  0  0  0  0  0  0  0
    2.4167   -1.8917    0.0000 C   0  0  0  0  0  0  0  0  0  0  0  0
    2.4167   -3.5500    0.0000 C   0  0  0  0  0  0  0  0  0  0  0  0
    5.2792   -3.5375    0.0000 C   0  0  0  0  0  0  0  0  0  0  0  0
    1.7042   -2.3125    0.0000 C   0  0  0  0  0  0  0  0  0  0  0  0
    5.9917   -2.2875    0.0000 C   0  0  0  0  0  0  0  0  0  0  0  0
    6.0000   -3.1167    0.0000 C   0  0  0  0  0  0  0  0  0  0  0  0
    1.7042   -3.1375    0.0000 C   0  0  0  0  0  0  0  0  0  0  0  0
  2  6  1  0
  3  1  2  0
  4  1  1  0
  5  3  1  0
  6  4  2  0
  7  1  1  0
  8  4  1  0
  9  3  1  0
 10  5  1  0
 11  6  1  0
 12  9  2  0
 13  8  2  0
 14 13  1  0
 15 12  1  0
  5  2  2  0
 11 14  2  0
 10 15  2  0
M  END
>  <ID>  (616) 


>  <MOLENAME>  (616) 
AMINACRINE

>  <therap>  (616) 
local antiseptic

>  <ref>  (616) 
Lancet ii:238 (1944); J Antimicrob Chemother 40:587 (1997)

>  <cas#>  (616) 
90-45-9, 134-50-9 [aminacrine hydrochloride]

>  <source>  (616) 
synthetic

>  <status>  (616) 
USAN, IN, BAN

>  <tradename>  (616) 
MONACRIN

>  <SMILES>  (616) 
Nc1c2ccccc2nc2c1cccc2

>  <standardized_failed>  (616) 
False

$$$$

     RDKit          2D

 38 39  0  0  0  0  0  0  0  0999 V2000
    3.4792   -4.3542    0.0000 C   0  0  0  0  0  0  0  0  0  0  0  0
    6.4667   -1.4417    0.0000 C   0  0  0  0  0  0  0  0  0  0  0  0
    3.0667   -5.0667    0.0000 C   0  0  0  0  0  0  0  0  0  0  0  0
    9.1875   -4.1417    0.0000 S   0  0  0  0  0  0  0  0  0  0  0  0
    5.0292   -3.9292    0.0000 C   0  0  0  0  0  0  0  0  0  0  0  0
    5.7417   -2.6917    0.0000 C   0  0  0  0  0  0  0  0  0  0  0  0
    6.4667   -0.6167    0.0000 C   0  0  0  0  0  0  0  0  0  0  0  0
    5.0292   -3.1042    0.0000 C   0  0  0  0  0  0  0  0  0  0  0  0
    7.1792   -0.2042    0.0000 C   0  0  0  0  0  0  0  0  0  0  0  0
    2.2417   -5.0667    0.0000 C   0  0  0  0  0  0  0  0  0  0  0  0
    7.1792   -1.8542    0.0000 O   0  0  0  0  0  0  0  0  0  0  0  0
    3.0667   -3.6375    0.0000 O   0  0  0  0  0  0  0  0  0  0  0  0
    5.7417   -1.8625    0.0000 O   0  0  0  0  0  0  0  0  0  0  0  0
    4.3125   -4.3542    0.0000 O   0  0  0  0  0  0  0  0  0  0  0  0
    7.8917   -0.6167    0.0000 C   0  0  0  0  0  0  0  0  0  0  0  0
    1.8292   -4.3542    0.0000 C   0  0  0  0  0  0  0  0  0  0  0  0
    2.2417   -3.6375    0.0000 C   0  0  0  0  0  0  0  0  0  0  0  0
    7.8917   -1.4417    0.0000 C   0  0  0  0  0  0  0  0  0  0  0  0
    6.4625   -3.1042    0.0000 C   0  0  0  0  0  0  0  0  0  0  0  0
    5.7417   -4.3417    0.0000 C   0  0  0  0  0  0  0  0  0  0  0  0
    6.4625   -3.9292    0.0000 C   0  0  0  0  0  0  0  0  0  0  0  0
    9.8542   -4.1417    0.0000 O   0  0  0  0  0  0  0  0  0  0  0  0
    9.1792   -3.4667    0.0000 O   0  0  0  0  0  0  0  0  0  0  0  0
    3.4917   -5.7875    0.0000 N   0  0  0  0  0  0  0  0  0  0  0  0
    9.1792   -4.8167    0.0000 O   0  0  0  0  0  0  0  0  0  0  0  0
    8.5167   -4.1417    0.0000 O   0  0  0  0  0  0  0  0  0  0  0  0
    7.1792    0.6208    0.0000 N   0  0  0  0  0  0  0  0  0  0  0  0
    5.7417   -0.1917    0.0000 O   0  0  0  0  0  0  0  0  0  0  0  0
    4.3125   -2.6792    0.0000 O   0  0  0  0  0  0  0  0  0  0  0  0
    1.8167   -5.7875    0.0000 O   0  0  0  0  0  0  0  0  0  0  0  0
    5.7292   -5.1542    0.0000 N   0  0  0  0  0  0  0  0  0  0  0  0
    7.1792   -2.6792    0.0000 N   0  0  0  0  0  0  0  0  0  0  0  0
    8.6167   -0.2000    0.0000 O   0  0  0  0  0  0  0  0  0  0  0  0
    1.0042   -4.3542    0.0000 O   0  0  0  0  0  0  0  0  0  0  0  0
    1.8167   -2.9167    0.0000 C   0  0  0  0  0  0  0  0  0  0  0  0
    8.6167   -1.8542    0.0000 C   0  0  0  0  0  0  0  0  0  0  0  0
    2.2292   -2.1917    0.0000 N   0  0  0  0  0  0  0  0  0  0  0  0
    9.3292   -1.4417    0.0000 O   0  0  0  0  0  0  0  0  0  0  0  0
  2 13  1  6
  3  1  1  0
  5 14  1  1
  6  8  1  0
  7  2  1  0
  8  5  1  0
  9  7  1  0
 10  3  1  0
 11  2  1  0
 12  1  1  0
  6 13  1  1
  1 14  1  6
 15 18  1  0
 16 10  1  0
 17 12  1  0
 18 11  1  0
 19 21  1  0
 20  5  1  0
 21 20  1  0
 22  4  2  0
 23  4  2  0
  3 24  1  6
 25  4  1  0
 26  4  1  0
  9 27  1  1
  7 28  1  6
  8 29  1  6
 10 30  1  1
 20 31  1  6
 19 32  1  6
 15 33  1  6
 16 34  1  6
 17 35  1  1
 18 36  1  1
 37 35  1  0
 38 36  1  0
 17 16  1  0
  6 19  1  0
 15  9  1  0
M  END
>  <ID>  (617) 


>  <MOLENAME>  (617) 
BEKANAMYCIN SULFATE

>  <therap>  (617) 
antibacterial

>  <ref>  (617) 
JACS 80:2911 (1958); 85:1547 (1963)

>  <cas#>  (617) 
4696-76-8 (base)

>  <source>  (617) 
semisynthetic; Streptomyces kanamyceticus; NK-1006

>  <status>  (617) 
USP, INN, BAN, JAN

>  <tradename>  (617) 
nan

>  <SMILES>  (617) 
NC[C@H]1O[C@H](O[C@@H]2[C@@H](N)C[C@@H](N)[C@H](O[C@H]3O[C@H](CO)[C@@H](O)[C@H](N)[C@H]3O)[C@H]2O)[C@H](N)[C@@H](O)[C@@H]1O

>  <standardized_failed>  (617) 
False

$$$$

     RDKit          2D

 31 35  0  0  0  0  0  0  0  0999 V2000
    6.5417   -2.7792    0.0000 C   0  0  0  0  0  0  0  0  0  0  0  0
    5.7542   -3.0167    0.0000 C   0  0  0  0  0  0  0  0  0  0  0  0
    5.7417   -3.8542    0.0000 C   0  0  0  0  0  0  0  0  0  0  0  0
    3.5792   -4.2500    0.0000 C   0  0  0  0  0  0  0  0  0  0  0  0
    5.0167   -4.2542    0.0000 C   0  0  0  0  0  0  0  0  0  0  0  0
    7.0250   -3.4542    0.0000 C   0  0  0  0  0  0  0  0  0  0  0  0
    4.3042   -3.8375    0.0000 C   0  0  0  0  0  0  0  0  0  0  0  0
    3.5792   -5.0792    0.0000 C   0  0  0  0  0  0  0  0  0  0  0  0
    7.3167   -2.7667    0.0000 O   0  0  0  0  0  0  0  0  0  0  0  0
    5.0375   -2.5917    0.0000 C   0  0  0  0  0  0  0  0  0  0  0  0
    4.3042   -3.0042    0.0000 C   0  0  0  0  0  0  0  0  0  0  0  0
    2.8625   -3.8292    0.0000 C   0  0  0  0  0  0  0  0  0  0  0  0
    6.5250   -4.1167    0.0000 C   0  0  0  0  0  0  0  0  0  0  0  0
    7.6167   -4.0417    0.0000 O   0  0  0  0  0  0  0  0  0  0  0  0
    6.5417   -1.9417    0.0000 C   0  0  0  0  0  0  0  0  0  0  0  0
    2.8625   -5.5000    0.0000 C   0  0  0  0  0  0  0  0  0  0  0  0
    7.9292   -3.5792    0.0000 C   0  0  0  0  0  0  0  0  0  0  0  0
    5.0167   -5.0917    0.0000 C   0  0  0  0  0  0  0  0  0  0  0  0
    2.1417   -4.2500    0.0000 C   0  0  0  0  0  0  0  0  0  0  0  0
    2.1417   -5.0792    0.0000 C   0  0  0  0  0  0  0  0  0  0  0  0
    4.3000   -5.5042    0.0000 C   0  0  0  0  0  0  0  0  0  0  0  0
    5.8125   -1.5292    0.0000 O   0  0  0  0  0  0  0  0  0  0  0  0
    1.4250   -5.5042    0.0000 O   0  0  0  0  0  0  0  0  0  0  0  0
    5.7500   -2.1875    0.0000 C   0  0  0  0  0  0  0  0  0  0  0  0
    3.5917   -2.5792    0.0000 O   0  0  0  0  0  0  0  0  0  0  0  0
    3.5792   -3.4167    0.0000 C   0  0  0  0  0  0  0  0  0  0  0  0
    7.2542   -1.5167    0.0000 C   0  0  0  0  0  0  0  0  0  0  0  0
    7.9792   -1.9292    0.0000 O   0  0  0  0  0  0  0  0  0  0  0  0
    8.7667   -3.5042    0.0000 C   0  0  0  0  0  0  0  0  0  0  0  0
    9.2417   -4.1875    0.0000 C   0  0  0  0  0  0  0  0  0  0  0  0
   10.0792   -4.1167    0.0000 C   0  0  0  0  0  0  0  0  0  0  0  0
  2  1  1  0
  3  2  1  0
  4  7  1  0
  5  3  1  0
  6  1  1  0
  7 11  1  0
  8  4  1  0
  1  9  1  0
 10  2  1  0
 11 10  1  0
 12  4  1  0
  6 13  1  6
  6 14  1  0
  1 15  1  1
 16  8  2  0
 17  9  1  0
 18  5  1  0
 19 12  2  0
 20 19  1  0
 21 18  1  0
 22 15  2  0
 23 20  2  0
 24  2  1  0
 11 25  1  1
 26  4  1  0
 27 15  1  0
 28 27  1  0
 29 17  1  0
 30 29  1  0
 31 30  1  0
 17 14  1  0
  3 13  1  0
  5  7  1  0
  8 21  1  0
 16 20  1  0
M  END
>  <ID>  (618) 


>  <MOLENAME>  (618) 
BUDESONIDE

>  <therap>  (618) 
antiinflammatory

>  <ref>  (618) 
Arzneim Forsch 29:1787 (1979); Drugs 28:485 (1984)

>  <cas#>  (618) 
51333-22-3 [11(gr b), 16(gr a)] 51372-29-3 [(11(gr b), 16(gr a)[//R//])] 51372-28-2 [(11(gr b), 16(gr a)[//S//])]

>  <source>  (618) 
semisynthetic

>  <status>  (618) 
USAN, INN, BAN, JAN

>  <tradename>  (618) 
PULMICORT

>  <SMILES>  (618) 
CCCC1O[C@@H]2CC3C4CCC5=CC(=O)C=CC5(C)C4[C@@H](O)CC3(C)[C@]2(C(=O)CO)O1

>  <standardized_failed>  (618) 
False

$$$$

     RDKit          2D

 31 34  0  0  0  0  0  0  0  0999 V2000
    3.7625   -2.9042    0.0000 C   0  0  0  0  0  0  0  0  0  0  0  0
    3.0458   -2.4875    0.0000 C   0  0  0  0  0  0  0  0  0  0  0  0
    3.0458   -4.1458    0.0000 C   0  0  0  0  0  0  0  0  0  0  0  0
    3.0417   -5.7917    0.0000 C   0  0  0  0  0  0  0  0  0  0  0  0
    2.3333   -2.9042    0.0000 C   0  0  0  0  0  0  0  0  0  0  0  0
    3.7625   -3.7292    0.0000 C   0  0  0  0  0  0  0  0  0  0  0  0
    2.3292   -3.7292    0.0000 C   0  0  0  0  0  0  0  0  0  0  0  0
    3.7542   -6.2042    0.0000 C   0  0  0  0  0  0  0  0  0  0  0  0
    3.7500   -7.0333    0.0000 C   0  0  0  0  0  0  0  0  0  0  0  0
    2.3250   -6.2042    0.0000 O   0  0  0  0  0  0  0  0  0  0  0  0
    3.0417   -4.9708    0.0000 O   0  0  0  0  0  0  0  0  0  0  0  0
    3.0375   -7.4417    0.0000 C   0  0  0  0  0  0  0  0  0  0  0  0
    4.4750   -2.4917    0.0000 C   0  0  0  0  0  0  0  0  0  0  0  0
    2.3208   -7.0292    0.0000 C   0  0  0  0  0  0  0  0  0  0  0  0
    4.4750   -4.1417    0.0000 C   0  0  0  0  0  0  0  0  0  0  0  0
    3.0458   -1.6625    0.0000 O   0  0  0  0  0  0  0  0  0  0  0  0
    1.6167   -2.4917    0.0000 C   0  0  0  0  0  0  0  0  0  0  0  0
    5.1875   -2.9000    0.0000 C   0  0  0  0  0  0  0  0  0  0  0  0
    5.1875   -3.7292    0.0000 C   0  0  0  0  0  0  0  0  0  0  0  0
    4.4708   -5.7958    0.0000 O   0  0  0  0  0  0  0  0  0  0  0  0
    4.4667   -7.4458    0.0000 O   0  0  0  0  0  0  0  0  0  0  0  0
    3.0375   -8.2667    0.0000 O   0  0  0  0  0  0  0  0  0  0  0  0
    4.4708   -1.6667    0.0000 O   0  0  0  0  0  0  0  0  0  0  0  0
    1.6167   -4.1458    0.0000 C   0  0  0  0  0  0  0  0  0  0  0  0
    1.6083   -7.4375    0.0000 C   0  0  0  0  0  0  0  0  0  0  0  0
    1.6125   -1.6667    0.0000 O   0  0  0  0  0  0  0  0  0  0  0  0
    1.7542   -8.2500    0.0000 O   0  0  0  0  0  0  0  0  0  0  0  0
    5.9042   -4.9667    0.0000 O   0  0  0  0  0  0  0  0  0  0  0  0
    0.9042   -3.7333    0.0000 C   0  0  0  0  0  0  0  0  0  0  0  0
    5.9042   -4.1417    0.0000 C   0  0  0  0  0  0  0  0  0  0  0  0
    0.9042   -2.9042    0.0000 C   0  0  0  0  0  0  0  0  0  0  0  0
  2  1  1  0
  3  6  1  0
  4 11  1  1
  5  2  1  0
  6  1  2  0
  7  3  1  0
  8  4  1  0
  9  8  1  0
 10  4  1  0
  3 11  1  6
 12  9  1  0
 13  1  1  0
 14 10  1  0
 15  6  1  0
 16  2  2  0
 17  5  2  0
 18 13  2  0
 19 18  1  0
  8 20  1  6
  9 21  1  6
 12 22  1  1
 23 13  1  0
 24  7  2  0
 14 25  1  1
 26 17  1  0
 27 25  1  0
 28 30  1  0
 29 24  1  0
 30 19  1  0
 31 17  1  0
 19 15  2  0
  7  5  1  0
 29 31  2  0
 14 12  1  0
M  END
>  <ID>  (619) 


>  <MOLENAME>  (619) 
CASANTHRANOL [cascaroside A shown]

>  <therap>  (619) 
laxative, antineoplastic

>  <ref>  (619) 
Cancer Letters 170:15 (2001)

>  <cas#>  (619) 
8024-48-4

>  <source>  (619) 
mixture of anthranol glycosides ex Cascara sagrada

>  <status>  (619) 
USP

>  <tradename>  (619) 
CASAKOL

>  <SMILES>  (619) 
O=C1c2c(O)cccc2[C@@H](O[C@@H]2O[C@H](CO)[C@H](O)[C@@H](O)[C@H]2O)c2c1c(O)cc(CO)c2

>  <standardized_failed>  (619) 
False

$$$$

     RDKit          2D

 27 29  0  0  0  0  0  0  0  0999 V2000
    3.1042   -2.3042    0.0000 C   0  0  0  0  0  0  0  0  0  0  0  0
    5.2417   -1.0625    0.0000 C   0  0  0  0  0  0  0  0  0  0  0  0
    3.1042   -3.1292    0.0000 C   0  0  0  0  0  0  0  0  0  0  0  0
    4.5292   -2.3042    0.0000 C   0  0  0  0  0  0  0  0  0  0  0  0
    3.8167   -1.8917    0.0000 C   0  0  0  0  0  0  0  0  0  0  0  0
    5.2417   -1.8875    0.0000 C   0  0  0  0  0  0  0  0  0  0  0  0
    4.5375   -3.1292    0.0000 C   0  0  0  0  0  0  0  0  0  0  0  0
    6.0292   -0.8125    0.0000 C   0  0  0  0  0  0  0  0  0  0  0  0
    3.8250   -3.5417    0.0000 C   0  0  0  0  0  0  0  0  0  0  0  0
    2.3917   -3.5500    0.0000 C   0  0  0  0  0  0  0  0  0  0  0  0
    4.5250   -0.6542    0.0000 C   0  0  0  0  0  0  0  0  0  0  0  0
    3.8125   -1.0667    0.0000 C   0  0  0  0  0  0  0  0  0  0  0  0
    2.3917   -1.8917    0.0000 C   0  0  0  0  0  0  0  0  0  0  0  0
    6.0250   -2.1417    0.0000 C   0  0  0  0  0  0  0  0  0  0  0  0
    7.3542    0.9208    0.0000 C   0  0  0  0  0  0  0  0  0  0  0  0
    1.6792   -3.1375    0.0000 C   0  0  0  0  0  0  0  0  0  0  0  0
    6.5125   -1.4792    0.0000 C   0  0  0  0  0  0  0  0  0  0  0  0
    8.1625    1.0875    0.0000 O   0  0  0  0  0  0  0  0  0  0  0  0
    6.2875   -0.0292    0.0000 C   0  0  0  0  0  0  0  0  0  0  0  0
    6.8042    1.5375    0.0000 O   0  0  0  0  0  0  0  0  0  0  0  0
    0.9625   -3.5500    0.0000 O   0  0  0  0  0  0  0  0  0  0  0  0
    1.6792   -2.3125    0.0000 C   0  0  0  0  0  0  0  0  0  0  0  0
    7.0917    0.1375    0.0000 C   0  0  0  0  0  0  0  0  0  0  0  0
    6.8542   -0.8125    0.0000 O   0  0  0  0  0  0  0  0  0  0  0  0
    3.1042   -1.4792    0.0000 C   0  0  0  0  0  0  0  0  0  0  0  0
    5.2375   -0.2375    0.0000 C   0  0  0  0  0  0  0  0  0  0  0  0
    8.8875    0.3750    0.0000 K   0  0  0  0  0 15  0  0  0  0  0  0
  2 11  1  0
  3  1  1  0
  4  5  1  0
  5  1  1  0
  6  4  1  0
  7  4  1  0
  8  2  1  0
  9  3  1  0
 10  3  2  0
 11 12  1  0
 12  5  1  0
 13  1  1  0
 14  6  1  0
 15 23  1  0
 16 22  1  0
 17 14  1  0
 18 15  1  0
 19  8  1  0
 20 15  2  0
 21 16  2  0
 22 13  1  0
 23 19  1  0
  8 24  1  1
  1 25  1  1
  2 26  1  1
  9  7  2  0
 16 10  1  0
  2  6  1  0
 17  8  1  0
M  CHG  2  18  -1  27   1
M  END
>  <ID>  (620) 


>  <MOLENAME>  (620) 
CANRENOIC ACID. POTASSIUM SALT

>  <therap>  (620) 
aldosterone antagonist, diuretic

>  <ref>  (620) 
Clin Gastroenterol Hepatol 4:1395 (2006); Health Technol Assess 14:#24 (2010)

>  <cas#>  (620) 
2181-04-6, 4138-96-9 [canrenoic acid]

>  <source>  (620) 
semisynthetic; SC-14266

>  <status>  (620) 
USAN, INN, BAN, JAN

>  <tradename>  (620) 
KANRENOL

>  <SMILES>  (620) 
C[C@]12CCC3C(C=CC4=CC(=O)CC[C@@]43C)C1CC[C@@]2(O)CCC(=O)O

>  <standardized_failed>  (620) 
False

$$$$

     RDKit          2D

 28 31  0  0  0  0  0  0  0  0999 V2000
    5.9917   -2.9917    0.0000 C   0  0  0  0  0  0  0  0  0  0  0  0
    3.8500   -4.2292    0.0000 C   0  0  0  0  0  0  0  0  0  0  0  0
    5.9917   -3.8167    0.0000 C   0  0  0  0  0  0  0  0  0  0  0  0
    4.5625   -3.8167    0.0000 C   0  0  0  0  0  0  0  0  0  0  0  0
    5.2792   -4.2292    0.0000 C   0  0  0  0  0  0  0  0  0  0  0  0
    3.8500   -5.0542    0.0000 C   0  0  0  0  0  0  0  0  0  0  0  0
    5.2792   -5.0542    0.0000 C   0  0  0  0  0  0  0  0  0  0  0  0
    6.7792   -2.7375    0.0000 C   0  0  0  0  0  0  0  0  0  0  0  0
    5.2750   -2.5792    0.0000 C   0  0  0  0  0  0  0  0  0  0  0  0
    4.5625   -5.4667    0.0000 C   0  0  0  0  0  0  0  0  0  0  0  0
    4.5625   -2.9917    0.0000 C   0  0  0  0  0  0  0  0  0  0  0  0
    6.7792   -4.0667    0.0000 C   0  0  0  0  0  0  0  0  0  0  0  0
    3.1375   -3.8167    0.0000 C   0  0  0  0  0  0  0  0  0  0  0  0
    7.2625   -3.4042    0.0000 C   0  0  0  0  0  0  0  0  0  0  0  0
    8.8917   -0.8125    0.0000 C   0  0  0  0  0  0  0  0  0  0  0  0
    3.1375   -5.4667    0.0000 C   0  0  0  0  0  0  0  0  0  0  0  0
    9.1500   -0.0292    0.0000 O   0  0  0  0  0  0  0  0  0  0  0  0
    7.0292   -1.9500    0.0000 C   0  0  0  0  0  0  0  0  0  0  0  0
    7.8375   -1.7750    0.0000 C   0  0  0  0  0  0  0  0  0  0  0  0
    6.0000   -5.4792    0.0000 O   0  0  0  0  0  0  0  0  0  0  0  0
    8.0917   -0.9875    0.0000 C   0  0  0  0  0  0  0  0  0  0  0  0
    5.9917   -2.1667    0.0000 C   0  0  0  0  0  0  0  0  0  0  0  0
    2.4167   -4.2292    0.0000 C   0  0  0  0  0  0  0  0  0  0  0  0
    2.4167   -5.0542    0.0000 C   0  0  0  0  0  0  0  0  0  0  0  0
    3.8500   -3.4042    0.0000 C   0  0  0  0  0  0  0  0  0  0  0  0
    9.4500   -1.4250    0.0000 O   0  0  0  0  0  0  0  0  0  0  0  0
    1.7000   -5.4792    0.0000 O   0  0  0  0  0  0  0  0  0  0  0  0
    6.4792   -1.3375    0.0000 C   0  0  0  0  0  0  0  0  0  0  0  0
  2  4  1  0
  3  1  1  0
  4 11  1  0
  5  3  1  0
  6  2  1  0
  7  5  1  0
  8  1  1  0
  9  1  1  0
 10  7  1  0
 11  9  1  0
 12  3  1  0
 13  2  1  0
  8 14  1  1
 15 21  1  0
  6 16  1  6
 17 15  2  0
  8 18  1  0
 19 18  1  0
  7 20  1  6
 21 19  1  0
  1 22  1  1
 23 13  1  0
 24 23  1  0
  2 25  1  1
 26 15  1  0
 24 27  1  6
 18 28  1  6
 12 14  1  0
  5  4  1  0
  6 10  1  0
 16 24  1  0
M  END
>  <ID>  (621) 


>  <MOLENAME>  (621) 
CHENODIOL

>  <therap>  (621) 
anticholithogenic, antilipemic agent

>  <ref>  (621) 
Helv Chim Acta 43: 1595 (1960)

>  <cas#>  (621) 
474-25-9

>  <source>  (621) 
human bile

>  <status>  (621) 
USAN, INN, BAN, JAN

>  <tradename>  (621) 
CHENIX

>  <SMILES>  (621) 
C[C@H](CCC(=O)O)[C@H]1CCC2C3C(CC[C@@]21C)[C@@]1(C)CC[C@@H](O)C[C@H]1C[C@H]3O

>  <standardized_failed>  (621) 
False

$$$$

     RDKit          2D

 28 30  0  0  0  0  0  0  0  0999 V2000
    5.1292   -0.2792    0.0000 C   0  0  0  0  0  0  0  0  0  0  0  0
    5.1292   -1.1042    0.0000 C   0  0  0  0  0  0  0  0  0  0  0  0
    3.6917   -3.5792    0.0000 C   0  0  0  0  0  0  0  0  0  0  0  0
    5.9125   -0.0292    0.0000 C   0  0  0  0  0  0  0  0  0  0  0  0
    3.6917   -2.7542    0.0000 C   0  0  0  0  0  0  0  0  0  0  0  0
    4.4042   -3.9917    0.0000 C   0  0  0  0  0  0  0  0  0  0  0  0
    4.4125   -1.5167    0.0000 C   0  0  0  0  0  0  0  0  0  0  0  0
    4.4125   -2.3417    0.0000 C   0  0  0  0  0  0  0  0  0  0  0  0
    5.9042   -1.3542    0.0000 C   0  0  0  0  0  0  0  0  0  0  0  0
    6.3917   -0.7000    0.0000 C   0  0  0  0  0  0  0  0  0  0  0  0
    2.9875   -3.9917    0.0000 C   0  0  0  0  0  0  0  0  0  0  0  0
    4.4042   -4.8167    0.0000 C   0  0  0  0  0  0  0  0  0  0  0  0
    5.1250   -3.5792    0.0000 C   0  0  0  0  0  0  0  0  0  0  0  0
    6.3167    0.6833    0.0000 C   0  0  0  0  0  0  0  0  0  0  0  0
    4.4167    0.1333    0.0000 C   0  0  0  0  0  0  0  0  0  0  0  0
    5.1250    0.5458    0.0000 C   0  0  0  0  0  0  0  0  0  0  0  0
    2.9875   -4.8167    0.0000 C   0  0  0  0  0  0  0  0  0  0  0  0
    3.6917   -5.2292    0.0000 C   0  0  0  0  0  0  0  0  0  0  0  0
    3.7000   -1.1042    0.0000 C   0  0  0  0  0  0  0  0  0  0  0  0
    2.2667   -5.2292    0.0000 O   0  0  0  0  0  0  0  0  0  0  0  0
    3.7000   -0.2792    0.0000 C   0  0  0  0  0  0  0  0  0  0  0  0
    7.5625   -0.0167    0.0000 C   0  0  0  0  0  0  0  0  0  0  0  0
    7.1417    0.6958    0.0000 C   0  0  0  0  0  0  0  0  0  0  0  0
    5.9000    1.3958    0.0000 C   0  0  0  0  0  0  0  0  0  0  0  0
    8.3875   -0.0125    0.0000 C   0  0  0  0  0  0  0  0  0  0  0  0
    8.8042   -0.7250    0.0000 C   0  0  0  0  0  0  0  0  0  0  0  0
    9.6292   -0.7167    0.0000 C   0  0  0  0  0  0  0  0  0  0  0  0
    8.4000   -1.4417    0.0000 C   0  0  0  0  0  0  0  0  0  0  0  0
  2  1  1  0
  3  5  2  0
  4  1  1  0
  5  8  1  0
  6  3  1  0
  7  2  1  0
  8  7  2  0
  9  2  1  0
 10  4  1  0
 11  3  1  0
 12  6  1  0
 13  6  2  0
 14  4  1  0
 15  1  1  0
 16  1  1  0
 17 11  1  0
 18 17  1  0
 19 21  1  0
 17 20  1  6
 21 15  1  0
 22 23  1  0
 23 14  1  0
 24 14  1  0
 25 22  1  0
 26 25  1  0
 27 26  1  0
 28 26  1  0
 10  9  1  0
 19  7  1  0
 12 18  1  0
M  END
>  <ID>  (622) 


>  <MOLENAME>  (622) 
CHOLECALCIFEROL

>  <therap>  (622) 
vitamin D3

>  <ref>  (622) 
J Biol Chem 247: 2328 (1972)

>  <cas#>  (622) 
67-97-0

>  <source>  (622) 
fish oils

>  <status>  (622) 
USP, INN, BAN, JAN

>  <tradename>  (622) 
nan

>  <SMILES>  (622) 
C=C1CC[C@H](O)C/C1=C/C=C1\CCCC2(C)C1CCC2C(C)CCCC(C)C

>  <standardized_failed>  (622) 
False

$$$$

     RDKit          2D

  8  7  0  0  0  0  0  0  0  0999 V2000
    6.8000   -3.5000    0.0000 S   0  0  0  0  0  0  0  0  0  0  0  0
    7.2625   -2.8042    0.0000 O   0  0  0  0  0  0  0  0  0  0  0  0
    6.3917   -4.2792    0.0000 O   0  0  0  0  0  0  0  0  0  0  0  0
    7.5125   -3.9125    0.0000 O   0  0  0  0  0  0  0  0  0  0  0  0
    6.0875   -3.0875    0.0000 C   0  0  0  0  0  0  0  0  0  0  0  0
    3.9417   -3.5000    0.0000 N   0  0  0  0  0  0  0  0  0  0  0  0
    5.3667   -3.5000    0.0000 C   0  0  0  0  0  0  0  0  0  0  0  0
    4.6542   -3.0875    0.0000 C   0  0  0  0  0  0  0  0  0  0  0  0
  2  1  2  0
  3  1  2  0
  4  1  1  0
  5  1  1  0
  6  8  1  0
  7  5  1  0
  8  7  1  0
M  END
>  <ID>  (623) 


>  <MOLENAME>  (623) 
TRAMIPROSATE

>  <therap>  (623) 
antibacterial; GABA agonist

>  <ref>  (623) 
Br J Pharmacol 59:373 (1977); Neuropharmacology 17:13 (1978)

>  <cas#>  (623) 
3687-18-1

>  <source>  (623) 
synthetic

>  <status>  (623) 
USAN, INN

>  <tradename>  (623) 
nan

>  <SMILES>  (623) 
NCCCS(=O)(=O)O

>  <standardized_failed>  (623) 
False

$$$$

     RDKit          2D

 15 15  0  0  0  0  0  0  0  0999 V2000
    6.8042   -2.3667    0.0000 C   0  0  0  0  0  0  0  0  0  0  0  0
    7.1875   -1.7167    0.0000 C   0  0  0  0  0  0  0  0  0  0  0  0
    4.5542   -2.3667    0.0000 C   0  0  0  0  0  0  0  0  0  0  0  0
    6.4292   -3.0167    0.0000 C   0  0  0  0  0  0  0  0  0  0  0  0
    4.1792   -3.0167    0.0000 C   0  0  0  0  0  0  0  0  0  0  0  0
    5.3042   -2.3667    0.0000 C   0  0  0  0  0  0  0  0  0  0  0  0
    5.6792   -3.0167    0.0000 C   0  0  0  0  0  0  0  0  0  0  0  0
    6.8125   -1.0667    0.0000 O   0  0  0  0  0  0  0  0  0  0  0  0
    4.5542   -3.6667    0.0000 C   0  0  0  0  0  0  0  0  0  0  0  0
    6.1250   -1.9917    0.0000 N   0  0  0  0  0  0  0  0  0  0  0  0
    7.9375   -1.7167    0.0000 O   0  0  0  0  0  0  0  0  0  0  0  0
    5.3042   -3.6667    0.0000 C   0  0  0  0  0  0  0  0  0  0  0  0
    4.1750   -1.7167    0.0000 O   0  0  0  0  0  0  0  0  0  0  0  0
    3.4292   -3.0167    0.0000 O   0  0  0  0  0  0  0  0  0  0  0  0
    7.4042   -2.6417    0.0000 C   0  0  0  0  0  0  0  0  0  0  0  0
  1  2  1  0
  3  6  2  0
  4  1  1  0
  5  9  2  0
  6  7  1  0
  7  4  1  0
  8  2  2  0
  9 12  1  0
 10  1  1  0
 11  2  1  0
 12  7  2  0
 13  3  1  0
 14  5  1  0
  1 15  1  1
  5  3  1  0
M  END
>  <ID>  (624) 


>  <MOLENAME>  (624) 
METHYLDOPA

>  <therap>  (624) 
antihypertensive

>  <ref>  (624) 
Br J Pharmacol 45:167p, 168p

>  <cas#>  (624) 
41372-08-1, 555-30-6 [anhydrous]

>  <source>  (624) 
synthetic

>  <status>  (624) 
USP, INN, BAN, JAN

>  <tradename>  (624) 
ALDOMET

>  <SMILES>  (624) 
C[C@](N)(Cc1ccc(O)c(O)c1)C(=O)O

>  <standardized_failed>  (624) 
False

$$$$

     RDKit          2D

 28 31  0  0  0  0  0  0  0  0999 V2000
    5.7917   -3.0917    0.0000 C   0  0  0  0  0  0  0  0  0  0  0  0
    3.6417   -4.3375    0.0000 C   0  0  0  0  0  0  0  0  0  0  0  0
    3.6417   -5.1625    0.0000 C   0  0  0  0  0  0  0  0  0  0  0  0
    5.7917   -3.9250    0.0000 C   0  0  0  0  0  0  0  0  0  0  0  0
    4.3542   -3.9250    0.0000 C   0  0  0  0  0  0  0  0  0  0  0  0
    5.0750   -4.3375    0.0000 C   0  0  0  0  0  0  0  0  0  0  0  0
    6.5750   -2.8417    0.0000 C   0  0  0  0  0  0  0  0  0  0  0  0
    4.3542   -5.5750    0.0000 C   0  0  0  0  0  0  0  0  0  0  0  0
    5.0667   -2.6792    0.0000 C   0  0  0  0  0  0  0  0  0  0  0  0
    5.0750   -5.1625    0.0000 C   0  0  0  0  0  0  0  0  0  0  0  0
    4.3542   -3.0917    0.0000 C   0  0  0  0  0  0  0  0  0  0  0  0
    6.5750   -4.1792    0.0000 C   0  0  0  0  0  0  0  0  0  0  0  0
    2.9292   -3.9250    0.0000 C   0  0  0  0  0  0  0  0  0  0  0  0
    7.0542   -3.5042    0.0000 C   0  0  0  0  0  0  0  0  0  0  0  0
    2.9292   -5.5750    0.0000 C   0  0  0  0  0  0  0  0  0  0  0  0
    6.8292   -2.0542    0.0000 C   0  0  0  0  0  0  0  0  0  0  0  0
    5.7875   -2.2667    0.0000 C   0  0  0  0  0  0  0  0  0  0  0  0
    2.2167   -4.3375    0.0000 C   0  0  0  0  0  0  0  0  0  0  0  0
    2.2167   -5.1625    0.0000 C   0  0  0  0  0  0  0  0  0  0  0  0
    3.6417   -3.5042    0.0000 C   0  0  0  0  0  0  0  0  0  0  0  0
    1.4917   -5.5792    0.0000 O   0  0  0  0  0  0  0  0  0  0  0  0
    7.8875   -1.0917    0.0000 C   0  0  0  0  0  0  0  0  0  0  0  0
    7.6292   -1.8792    0.0000 C   0  0  0  0  0  0  0  0  0  0  0  0
    6.2750   -1.4417    0.0000 C   0  0  0  0  0  0  0  0  0  0  0  0
    8.6917   -0.9167    0.0000 C   0  0  0  0  0  0  0  0  0  0  0  0
    8.9417   -0.1292    0.0000 C   0  0  0  0  0  0  0  0  0  0  0  0
    9.7500    0.0458    0.0000 C   0  0  0  0  0  0  0  0  0  0  0  0
    8.3917    0.4833    0.0000 C   0  0  0  0  0  0  0  0  0  0  0  0
  2  5  1  0
  3  2  1  0
  4  1  1  0
  5 11  1  0
  6  4  1  0
  7  1  1  0
  8 10  1  0
  9  1  1  0
 10  6  1  0
 11  9  1  0
 12  4  1  0
 13  2  1  0
 14  7  1  0
 15  3  1  0
  7 16  1  1
  1 17  1  1
 18 13  1  0
 19 18  1  0
  2 20  1  1
 19 21  1  1
 22 23  1  0
 23 16  1  0
 24 16  1  0
 25 22  1  0
 26 25  1  0
 27 26  1  0
 28 26  1  0
 12 14  1  0
  6  5  1  0
  3  8  2  0
 19 15  1  0
M  END
>  <ID>  (625) 


>  <MOLENAME>  (625) 
CHOLESTEROL

>  <therap>  (625) 
emulsifying agent

>  <ref>  (625) 
Endocr Rev 3:299 (1982)

>  <cas#>  (625) 
57-88-5

>  <source>  (625) 
common animal sterol

>  <status>  (625) 
USAN, NF

>  <tradename>  (625) 
nan

>  <SMILES>  (625) 
CC(C)CCCC(C)[C@H]1CCC2C3CC=C4C[C@@H](O)CC[C@]4(C)C3CC[C@@]21C

>  <standardized_failed>  (625) 
False

$$$$

     RDKit          2D

 21 23  0  0  0  0  0  0  0  0999 V2000
    7.4417    0.3333    0.0000 C   0  0  0  0  0  0  0  0  0  0  0  0
    8.1542   -0.0792    0.0000 N   0  0  0  0  0  0  0  0  0  0  0  0
    3.8625   -2.5542    0.0000 C   0  0  0  0  0  0  0  0  0  0  0  0
    3.8625   -3.3792    0.0000 C   0  0  0  0  0  0  0  0  0  0  0  0
    3.0792   -2.3042    0.0000 O   0  0  0  0  0  0  0  0  0  0  0  0
    3.0792   -3.6375    0.0000 O   0  0  0  0  0  0  0  0  0  0  0  0
    2.5917   -2.9750    0.0000 C   0  0  0  0  0  0  0  0  0  0  0  0
    6.7292   -0.0792    0.0000 C   0  0  0  0  0  0  0  0  0  0  0  0
    4.5750   -2.1417    0.0000 C   0  0  0  0  0  0  0  0  0  0  0  0
    7.4417    1.1625    0.0000 O   0  0  0  0  0  0  0  0  0  0  0  0
    6.7292   -0.9042    0.0000 C   0  0  0  0  0  0  0  0  0  0  0  0
    6.0167   -1.3167    0.0000 C   0  0  0  0  0  0  0  0  0  0  0  0
    6.0125   -2.1417    0.0000 C   0  0  0  0  0  0  0  0  0  0  0  0
    4.5750   -3.7917    0.0000 C   0  0  0  0  0  0  0  0  0  0  0  0
    5.2917   -2.5542    0.0000 C   0  0  0  0  0  0  0  0  0  0  0  0
    5.2917   -3.3792    0.0000 C   0  0  0  0  0  0  0  0  0  0  0  0
    8.1542   -0.9042    0.0000 C   0  0  0  0  0  0  0  0  0  0  0  0
    8.8750    0.3333    0.0000 C   0  0  0  0  0  0  0  0  0  0  0  0
    9.5917   -0.0792    0.0000 C   0  0  0  0  0  0  0  0  0  0  0  0
    8.8667   -1.3167    0.0000 C   0  0  0  0  0  0  0  0  0  0  0  0
    9.5917   -0.9042    0.0000 C   0  0  0  0  0  0  0  0  0  0  0  0
  2  1  1  0
  3  9  2  0
  4 14  2  0
  5  3  1  0
  6  4  1  0
  7  5  1  0
  8  1  1  0
  9 15  1  0
 10  1  2  0
 11  8  2  0
 12 11  1  0
 13 12  2  0
 14 16  1  0
 15 13  1  0
 16 15  2  0
 17  2  1  0
 18  2  1  0
 19 18  1  0
 20 17  1  0
 21 19  1  0
 20 21  1  0
  4  3  1  0
  7  6  1  0
M  END
>  <ID>  (626) 


>  <MOLENAME>  (626) 
PIPERINE

>  <therap>  (626) 
analeptic, antibacterial

>  <ref>  (626) 
Tet Lett 1979:1043

>  <cas#>  (626) 
94-62-2

>  <source>  (626) 
black pepper (Piper nigrum L.)

>  <status>  (626) 
USP-VIII

>  <tradename>  (626) 
nan

>  <SMILES>  (626) 
O=C(/C=C/C=C/c1ccc2OCOc2c1)N1CCCCC1

>  <standardized_failed>  (626) 
False

$$$$

     RDKit          2D

 31 33  0  0  0  0  0  0  0  0999 V2000
    5.6500   -3.9292    0.0000 C   0  0  0  0  0  0  0  0  0  0  0  0
    4.9042   -3.9667    0.0000 N   0  0  0  0  0  0  0  0  0  0  0  0
    6.1500   -4.4917    0.0000 C   0  0  0  0  0  0  0  0  0  0  0  0
    6.0250   -3.2917    0.0000 N   0  0  0  0  0  0  0  0  0  0  0  0
    6.0125   -5.2292    0.0000 C   0  0  0  0  0  0  0  0  0  0  0  0
    5.3625   -5.5792    0.0000 O   0  0  0  0  0  0  0  0  0  0  0  0
    4.4542   -4.5667    0.0000 C   0  0  0  0  0  0  0  0  0  0  0  0
    4.6625   -5.2917    0.0000 C   0  0  0  0  0  0  0  0  0  0  0  0
    6.7792   -1.9917    0.0000 N   0  0  0  0  0  0  0  0  0  0  0  0
    6.8417   -4.2292    0.0000 C   0  0  0  0  0  0  0  0  0  0  0  0
    8.9167   -1.6542    0.0000 C   0  0  0  0  0  0  0  0  0  0  0  0
   11.0542   -1.2417    0.0000 C   0  0  0  0  0  0  0  0  0  0  0  0
    5.6500   -2.6417    0.0000 C   0  0  0  0  0  0  0  0  0  0  0  0
    6.7792   -3.2917    0.0000 C   0  0  0  0  0  0  0  0  0  0  0  0
    6.5875   -5.7042    0.0000 C   0  0  0  0  0  0  0  0  0  0  0  0
    8.2000   -1.2417    0.0000 O   0  0  0  0  0  0  0  0  0  0  0  0
   11.0542   -0.4167    0.0000 O   0  0  0  0  0  0  0  0  0  0  0  0
    6.0250   -1.9917    0.0000 C   0  0  0  0  0  0  0  0  0  0  0  0
    7.1542   -2.6417    0.0000 C   0  0  0  0  0  0  0  0  0  0  0  0
    7.4250   -4.7167    0.0000 C   0  0  0  0  0  0  0  0  0  0  0  0
    9.6292   -1.2417    0.0000 C   0  0  0  0  0  0  0  0  0  0  0  0
   10.3417   -1.6542    0.0000 C   0  0  0  0  0  0  0  0  0  0  0  0
   11.7667   -1.6542    0.0000 O   0  0  0  0  0  0  0  0  0  0  0  0
    8.9167   -2.4792    0.0000 O   0  0  0  0  0  0  0  0  0  0  0  0
    7.2875   -5.4417    0.0000 C   0  0  0  0  0  0  0  0  0  0  0  0
    8.1375   -4.4667    0.0000 Cl  0  0  0  0  0  0  0  0  0  0  0  0
    7.1667   -1.3417    0.0000 C   0  0  0  0  0  0  0  0  0  0  0  0
    3.7292   -4.3917    0.0000 C   0  0  0  0  0  0  0  0  0  0  0  0
    4.1500   -5.8292    0.0000 C   0  0  0  0  0  0  0  0  0  0  0  0
    3.4250   -5.6542    0.0000 C   0  0  0  0  0  0  0  0  0  0  0  0
    3.2125   -4.9292    0.0000 C   0  0  0  0  0  0  0  0  0  0  0  0
  2  1  2  0
  3  1  1  0
  4  1  1  0
  5  3  2  0
  6  5  1  0
  7  2  1  0
  8  7  2  0
  9 19  1  0
 10  3  1  0
 12 22  1  0
 13  4  1  0
 14  4  1  0
 15  5  1  0
 16 11  2  0
 17 12  2  0
 18 13  1  0
 19 14  1  0
 20 10  2  0
 21 11  1  0
 22 21  1  0
 23 12  1  0
 24 11  1  0
 25 15  2  0
 26 20  1  0
 27  9  1  0
 28  7  1  0
 29  8  1  0
 30 31  1  0
 31 28  2  0
  9 18  1  0
  8  6  1  0
 25 20  1  0
 30 29  2  0
M  END
>  <ID>  (627) 


>  <MOLENAME>  (627) 
LOXAPINE SUCCINATE

>  <therap>  (627) 
antipsychotic

>  <ref>  (627) 
Drugs (1978), 15(3), 198-217; Dis. Nerv. Syst. (1975), 36(7), 361-4; Arzneim. Forsch. (1965), 15(8), 841-3

>  <cas#>  (627) 
27833-64-3, 1977-10-2 [loxapine]

>  <source>  (627) 
synthetic; CL-71563

>  <status>  (627) 
USP

>  <tradename>  (627) 
LOXAPINE

>  <SMILES>  (627) 
CN1CCN(C2=Nc3c(cccc3)Oc3c2cc(Cl)cc3)CC1

>  <standardized_failed>  (627) 
False

$$$$

     RDKit          2D

 29 32  0  0  0  0  0  0  0  0999 V2000
    6.0917   -3.5542    0.0000 C   0  0  0  0  0  0  0  0  0  0  0  0
    4.6542   -4.3792    0.0000 C   0  0  0  0  0  0  0  0  0  0  0  0
    6.0917   -4.3792    0.0000 C   0  0  0  0  0  0  0  0  0  0  0  0
    3.9417   -4.7917    0.0000 C   0  0  0  0  0  0  0  0  0  0  0  0
    5.3750   -4.7917    0.0000 C   0  0  0  0  0  0  0  0  0  0  0  0
    5.3667   -3.1417    0.0000 C   0  0  0  0  0  0  0  0  0  0  0  0
    5.3750   -5.6250    0.0000 C   0  0  0  0  0  0  0  0  0  0  0  0
    3.9417   -5.6250    0.0000 C   0  0  0  0  0  0  0  0  0  0  0  0
    4.6542   -3.5542    0.0000 C   0  0  0  0  0  0  0  0  0  0  0  0
    6.8750   -3.3000    0.0000 C   0  0  0  0  0  0  0  0  0  0  0  0
    4.6542   -6.0375    0.0000 C   0  0  0  0  0  0  0  0  0  0  0  0
    6.8750   -4.6375    0.0000 C   0  0  0  0  0  0  0  0  0  0  0  0
    3.2292   -4.3792    0.0000 C   0  0  0  0  0  0  0  0  0  0  0  0
    7.3542   -3.9667    0.0000 C   0  0  0  0  0  0  0  0  0  0  0  0
    3.2292   -6.0375    0.0000 C   0  0  0  0  0  0  0  0  0  0  0  0
    9.2917   -2.7750    0.0000 C   0  0  0  0  0  0  0  0  0  0  0  0
    5.3625   -2.3167    0.0000 O   0  0  0  0  0  0  0  0  0  0  0  0
    6.0917   -6.0417    0.0000 O   0  0  0  0  0  0  0  0  0  0  0  0
    2.5167   -5.6250    0.0000 C   0  0  0  0  0  0  0  0  0  0  0  0
    9.5417   -1.9917    0.0000 O   0  0  0  0  0  0  0  0  0  0  0  0
    7.1292   -2.5125    0.0000 C   0  0  0  0  0  0  0  0  0  0  0  0
    1.7917   -6.0417    0.0000 O   0  0  0  0  0  0  0  0  0  0  0  0
    7.9292   -2.3375    0.0000 C   0  0  0  0  0  0  0  0  0  0  0  0
    2.5167   -4.7917    0.0000 C   0  0  0  0  0  0  0  0  0  0  0  0
    8.4875   -2.9500    0.0000 C   0  0  0  0  0  0  0  0  0  0  0  0
    6.0417   -2.7417    0.0000 C   0  0  0  0  0  0  0  0  0  0  0  0
    3.9417   -3.9667    0.0000 C   0  0  0  0  0  0  0  0  0  0  0  0
    9.8417   -3.3875    0.0000 O   0  0  0  0  0  0  0  0  0  0  0  0
    6.5750   -1.9000    0.0000 C   0  0  0  0  0  0  0  0  0  0  0  0
  2  9  1  0
  3  1  1  0
  4  2  1  0
  5  3  1  0
  6  1  1  0
  7  5  1  0
  8  4  1  0
  9  6  1  0
 10  1  1  0
 11  7  1  0
 12  3  1  0
 13  4  1  0
 14 10  1  0
  8 15  1  6
 16 25  1  0
 17  6  2  0
 18  7  2  0
 19 24  1  0
 20 16  2  0
 10 21  1  1
 22 19  2  0
 23 21  1  0
 24 13  1  0
 25 23  1  0
  1 26  1  1
  4 27  1  1
 28 16  1  0
 29 21  1  0
 12 14  1  0
  5  2  1  0
  8 11  1  0
 19 15  1  0
M  END
>  <ID>  (628) 


>  <MOLENAME>  (628) 
DEHYDROCHOLIC ACID

>  <therap>  (628) 
choleretic

>  <ref>  (628) 
Biochem. J. (1990), 270(3), 691-5; Drugs (1986), 31(5), 430-48; J. Pharmacol. Exp. Ther. (1945), 85, 343-5

>  <cas#>  (628) 
81-23-2

>  <source>  (628) 
derivative of cholic acid

>  <status>  (628) 
USP, INN, BAN, JAN

>  <tradename>  (628) 
DILABIL

>  <SMILES>  (628) 
CC(CCC(=O)O)[C@H]1CCC2C3C(=O)C[C@@H]4CC(=O)CC[C@]4(C)C3CC(=O)[C@@]21C

>  <standardized_failed>  (628) 
False

$$$$

     RDKit          2D

 19 21  0  0  0  0  0  0  0  0999 V2000
    4.0417   -1.3917    0.0000 C   0  0  0  0  0  0  0  0  0  0  0  0
    4.7625   -2.6375    0.0000 N   0  0  0  0  0  0  0  0  0  0  0  0
    3.3375   -2.6375    0.0000 C   0  0  0  0  0  0  0  0  0  0  0  0
    4.7625   -1.8042    0.0000 C   0  0  0  0  0  0  0  0  0  0  0  0
    4.0500   -3.0417    0.0000 C   0  0  0  0  0  0  0  0  0  0  0  0
    3.3292   -1.8125    0.0000 C   0  0  0  0  0  0  0  0  0  0  0  0
    4.0417   -3.8667    0.0000 C   0  0  0  0  0  0  0  0  0  0  0  0
    4.0417   -0.5667    0.0000 C   0  0  0  0  0  0  0  0  0  0  0  0
    2.6250   -3.0417    0.0000 C   0  0  0  0  0  0  0  0  0  0  0  0
    5.4750   -3.0500    0.0000 C   0  0  0  0  0  0  0  0  0  0  0  0
    3.3292   -4.2792    0.0000 C   0  0  0  0  0  0  0  0  0  0  0  0
    2.6167   -1.4000    0.0000 O   0  0  0  0  0  0  0  0  0  0  0  0
    4.7542   -4.2792    0.0000 C   0  0  0  0  0  0  0  0  0  0  0  0
    2.6167   -3.8667    0.0000 C   0  0  0  0  0  0  0  0  0  0  0  0
    3.3292   -0.1542    0.0000 O   0  0  0  0  0  0  0  0  0  0  0  0
    5.4667   -3.8750    0.0000 C   0  0  0  0  0  0  0  0  0  0  0  0
    4.7542   -0.1542    0.0000 O   0  0  0  0  0  0  0  0  0  0  0  0
    1.9042   -4.2792    0.0000 F   0  0  0  0  0  0  0  0  0  0  0  0
    6.1917   -2.6375    0.0000 C   0  0  0  0  0  0  0  0  0  0  0  0
  2  4  1  0
  3  6  1  0
  4  1  2  0
  5  3  2  0
  6  1  1  0
  7  5  1  0
  8  1  1  0
  9  3  1  0
 10  2  1  0
 11 14  1  0
 12  6  2  0
 13  7  1  0
 14  9  2  0
 15  8  2  0
 16 10  1  0
 17  8  1  0
 18 14  1  0
 19 10  1  0
  2  5  1  0
 13 16  1  0
 11  7  2  0
M  END
>  <ID>  (629) 


>  <MOLENAME>  (629) 
FLUMEQUINE

>  <therap>  (629) 
antibacterial

>  <ref>  (629) 
J. Antimicrob. Chemother. (1981), 7(6), 643-8; J. Antimicrob. Chemother. (1977), 3(6), 615-20; Antimicrob. Agents Chemother. (1975), 7(4), 483-5

>  <cas#>  (629) 
42835-25-6

>  <source>  (629) 
synthetic

>  <status>  (629) 
USAN, INN, BAN

>  <tradename>  (629) 
APURONE

>  <SMILES>  (629) 
CC1CCc2cc(F)cc3c2n1cc(C(=O)O)c3=O

>  <standardized_failed>  (629) 
False

$$$$

     RDKit          2D

 32 33  0  0  0  0  0  0  0  0999 V2000
    5.8500   -6.2292    0.0000 N   0  0  0  0  0  0  0  0  0  0  0  0
    5.6375   -7.0167    0.0000 C   0  0  0  0  0  0  0  0  0  0  0  0
    6.2875   -4.6417    0.0000 N   0  0  0  0  0  0  0  0  0  0  0  0
    6.2125   -7.6042    0.0000 C   0  0  0  0  0  0  0  0  0  0  0  0
    4.8417   -7.2292    0.0000 C   0  0  0  0  0  0  0  0  0  0  0  0
    7.3042   -3.6292    0.0000 C   0  0  0  0  0  0  0  0  0  0  0  0
    5.2750   -5.6417    0.0000 C   0  0  0  0  0  0  0  0  0  0  0  0
    6.6500   -6.0167    0.0000 C   0  0  0  0  0  0  0  0  0  0  0  0
    7.5250   -2.8292    0.0000 C   0  0  0  0  0  0  0  0  0  0  0  0
    4.2625   -6.6417    0.0000 C   0  0  0  0  0  0  0  0  0  0  0  0
    4.6167   -8.0167    0.0000 C   0  0  0  0  0  0  0  0  0  0  0  0
    5.9917   -8.3917    0.0000 C   0  0  0  0  0  0  0  0  0  0  0  0
    7.0042   -7.3917    0.0000 C   0  0  0  0  0  0  0  0  0  0  0  0
    6.8667   -5.2292    0.0000 C   0  0  0  0  0  0  0  0  0  0  0  0
    5.4875   -4.8542    0.0000 C   0  0  0  0  0  0  0  0  0  0  0  0
    7.3792   -8.7542    0.0000 C   0  0  0  0  0  0  0  0  0  0  0  0
    3.2417   -7.6417    0.0000 C   0  0  0  0  0  0  0  0  0  0  0  0
    6.5042   -3.8417    0.0000 C   0  0  0  0  0  0  0  0  0  0  0  0
    7.5917   -7.9792    0.0000 C   0  0  0  0  0  0  0  0  0  0  0  0
    3.8250   -8.2292    0.0000 C   0  0  0  0  0  0  0  0  0  0  0  0
    3.4750   -6.8542    0.0000 C   0  0  0  0  0  0  0  0  0  0  0  0
    6.5750   -8.9792    0.0000 C   0  0  0  0  0  0  0  0  0  0  0  0
    8.3167   -2.6292    0.0000 C   0  0  0  0  0  0  0  0  0  0  0  0
    7.9667   -9.3292    0.0000 F   0  0  0  0  0  0  0  0  0  0  0  0
    2.4375   -7.8417    0.0000 F   0  0  0  0  0  0  0  0  0  0  0  0
    4.9542   -3.8375    0.0000 Cl  0  0  0  0  0  0  0  0  0  0  0  0
    7.6667   -6.4000    0.0000 Cl  0  0  0  0  0  0  0  0  0  0  0  0
    8.9000   -3.2167    0.0000 C   0  0  0  0  0  0  0  0  0  0  0  0
    8.5375   -1.8417    0.0000 C   0  0  0  0  0  0  0  0  0  0  0  0
    9.3292   -1.6292    0.0000 C   0  0  0  0  0  0  0  0  0  0  0  0
    9.6875   -3.0042    0.0000 C   0  0  0  0  0  0  0  0  0  0  0  0
    9.9125   -2.2167    0.0000 C   0  0  0  0  0  0  0  0  0  0  0  0
  2  1  1  0
  3 14  1  0
  4  2  1  0
  5  2  1  0
  6 18  1  0
  7  1  1  0
  8  1  1  0
  9  6  2  0
 10  5  2  0
 11  5  1  0
 12  4  2  0
 13  4  1  0
 14  8  1  0
 15  7  1  0
 16 19  1  0
 17 20  1  0
 18  3  1  0
 19 13  2  0
 20 11  2  0
 21 10  1  0
 22 12  1  0
 23  9  1  0
 24 16  1  0
 25 17  1  0
 28 23  2  0
 29 23  1  0
 30 29  2  0
 31 28  1  0
 32 30  1  0
  3 15  1  0
 17 21  2  0
 16 22  2  0
 31 32  2  0
M  END
>  <ID>  (630) 


>  <MOLENAME>  (630) 
FLUNARIZINE HYDROCHLORIDE

>  <therap>  (630) 
vasodilator

>  <ref>  (630) 
Drugs (1984), 29(1), 6-44; Arzneim. Forsch. (1978), 28(11), 2082-7; Arch. Int. Pharmacodyn. Ther. (1973), 204(1), 37-55

>  <cas#>  (630) 
30484-77-6, 52468-60-7 [flunarazine]

>  <source>  (630) 
synthetic; R-14950

>  <status>  (630) 
USAN, INN, BAN, JAN

>  <tradename>  (630) 
FLUGERAL

>  <SMILES>  (630) 
Fc1ccc(C(c2ccc(F)cc2)N2CCN(C/C=C/c3ccccc3)CC2)cc1

>  <standardized_failed>  (630) 
False

$$$$

     RDKit          2D

 32 33  0  0  0  0  0  0  0  0999 V2000
    4.7292   -6.5042    0.0000 N   0  0  0  0  0  0  0  0  0  0  0  0
    5.4417   -6.9167    0.0000 C   0  0  0  0  0  0  0  0  0  0  0  0
    4.7292   -8.1667    0.0000 S   0  0  0  0  0  0  0  0  0  0  0  0
    7.5792   -6.5042    0.0000 C   0  0  0  0  0  0  0  0  0  0  0  0
    5.4417   -7.7417    0.0000 C   0  0  0  0  0  0  0  0  0  0  0  0
    4.0042   -6.9167    0.0000 C   0  0  0  0  0  0  0  0  0  0  0  0
    4.0042   -7.7417    0.0000 C   0  0  0  0  0  0  0  0  0  0  0  0
    6.1542   -6.5042    0.0000 C   0  0  0  0  0  0  0  0  0  0  0  0
    6.8667   -6.9167    0.0000 C   0  0  0  0  0  0  0  0  0  0  0  0
    6.1542   -4.0292    0.0000 N   0  0  0  0  0  0  0  0  0  0  0  0
    7.5917   -3.2167    0.0000 N   0  0  0  0  0  0  0  0  0  0  0  0
    6.1542   -8.1542    0.0000 C   0  0  0  0  0  0  0  0  0  0  0  0
    6.8667   -7.7417    0.0000 C   0  0  0  0  0  0  0  0  0  0  0  0
    8.2917   -6.9167    0.0000 F   0  0  0  0  0  0  0  0  0  0  0  0
    7.5792   -5.6792    0.0000 F   0  0  0  0  0  0  0  0  0  0  0  0
    8.2917   -6.0917    0.0000 F   0  0  0  0  0  0  0  0  0  0  0  0
    4.7292   -5.6792    0.0000 C   0  0  0  0  0  0  0  0  0  0  0  0
    7.5792   -4.0417    0.0000 C   0  0  0  0  0  0  0  0  0  0  0  0
    6.8667   -4.4417    0.0000 C   0  0  0  0  0  0  0  0  0  0  0  0
    6.8667   -2.8042    0.0000 C   0  0  0  0  0  0  0  0  0  0  0  0
    6.1542   -3.2042    0.0000 C   0  0  0  0  0  0  0  0  0  0  0  0
    5.4417   -5.2667    0.0000 C   0  0  0  0  0  0  0  0  0  0  0  0
    5.4417   -4.4417    0.0000 C   0  0  0  0  0  0  0  0  0  0  0  0
    4.7375   -3.4000    0.0000 Cl  0  0  0  0  0  0  0  0  0  0  0  0
    8.8250   -4.1167    0.0000 Cl  0  0  0  0  0  0  0  0  0  0  0  0
    3.2917   -6.5042    0.0000 C   0  0  0  0  0  0  0  0  0  0  0  0
    8.3042   -2.8042    0.0000 C   0  0  0  0  0  0  0  0  0  0  0  0
    3.2917   -8.1667    0.0000 C   0  0  0  0  0  0  0  0  0  0  0  0
    9.7292   -2.8042    0.0000 O   0  0  0  0  0  0  0  0  0  0  0  0
    9.0167   -3.2167    0.0000 C   0  0  0  0  0  0  0  0  0  0  0  0
    2.5792   -6.9292    0.0000 C   0  0  0  0  0  0  0  0  0  0  0  0
    2.5792   -7.7542    0.0000 C   0  0  0  0  0  0  0  0  0  0  0  0
  2  1  1  0
  3  7  1  0
  4  9  1  0
  5  2  2  0
  6  1  1  0
  7  6  2  0
  8  2  1  0
  9  8  2  0
 10 23  1  0
 11 20  1  0
 12  5  1  0
 13  9  1  0
 14  4  1  0
 15  4  1  0
 16  4  1  0
 17  1  1  0
 18 19  1  0
 19 10  1  0
 20 21  1  0
 21 10  1  0
 22 17  1  0
 23 22  1  0
 26  6  1  0
 27 11  1  0
 28  7  1  0
 29 30  1  0
 30 27  1  0
 31 26  2  0
 32 31  1  0
  5  3  1  0
 28 32  2  0
 12 13  2  0
 18 11  1  0
M  END
>  <ID>  (631) 


>  <MOLENAME>  (631) 
FLUPHENAZINE HYDROCHLORIDE

>  <therap>  (631) 
antipsychotic, H1 antihistamine

>  <ref>  (631) 
Ill Med J 119:398 (1961); Am J Psychiat 123:1303 (1967); Schizophr Res 53:25 (2002); Schizophr Bull 33:1379 (2007)

>  <cas#>  (631) 
146-56-5

>  <source>  (631) 
synthetic

>  <status>  (631) 
USP, BAN, JAN

>  <tradename>  (631) 
PROLIXIN

>  <SMILES>  (631) 
OCCN1CCN(CCCN2c3c(cccc3)Sc3c2cc(C(F)(F)F)cc3)CC1

>  <standardized_failed>  (631) 
False

$$$$

     RDKit          2D

 19 19  0  0  0  0  0  0  0  0999 V2000
    3.4542   -1.6250    0.0000 C   0  0  0  0  0  0  0  0  0  0  0  0
    2.7417   -2.8625    0.0000 N   0  0  0  0  0  0  0  0  0  0  0  0
    2.7417   -1.2125    0.0000 C   0  0  0  0  0  0  0  0  0  0  0  0
    3.4542   -2.4500    0.0000 C   0  0  0  0  0  0  0  0  0  0  0  0
    6.3167   -1.6125    0.0000 C   0  0  0  0  0  0  0  0  0  0  0  0
    5.6000   -1.2042    0.0000 N   0  0  0  0  0  0  0  0  0  0  0  0
    4.1667   -1.2042    0.0000 C   0  0  0  0  0  0  0  0  0  0  0  0
    4.1667   -2.8625    0.0000 C   0  0  0  0  0  0  0  0  0  0  0  0
    2.7417   -3.6875    0.0000 O   0  0  0  0  0  0  0  0  0  0  0  0
    2.0292   -2.4500    0.0000 O   0  0  0  0  0  0  0  0  0  0  0  0
    4.8875   -1.6167    0.0000 C   0  0  0  0  0  0  0  0  0  0  0  0
    7.0292   -1.2000    0.0000 O   0  0  0  0  0  0  0  0  0  0  0  0
    2.7417   -0.3875    0.0000 F   0  0  0  0  0  0  0  0  0  0  0  0
    2.0292   -1.6250    0.0000 F   0  0  0  0  0  0  0  0  0  0  0  0
    3.3292   -0.6250    0.0000 F   0  0  0  0  0  0  0  0  0  0  0  0
    6.3167   -2.4375    0.0000 C   0  0  0  0  0  0  0  0  0  0  0  0
    4.8875   -2.4500    0.0000 C   0  0  0  0  0  0  0  0  0  0  0  0
    7.0292   -2.8500    0.0000 C   0  0  0  0  0  0  0  0  0  0  0  0
    5.6042   -2.8542    0.0000 C   0  0  0  0  0  0  0  0  0  0  0  0
  2  4  1  0
  3  1  1  0
  4  1  2  0
  5  6  1  0
  6 11  1  0
  7  1  1  0
  8  4  1  0
  9  2  1  0
 10  2  2  0
 11  7  2  0
 12  5  2  0
 13  3  1  0
 14  3  1  0
 15  3  1  0
 16  5  1  0
 17 11  1  0
 18 16  1  0
 19 16  1  0
  8 17  2  0
M  CHG  2   2   1   9  -1
M  END
>  <ID>  (632) 


>  <MOLENAME>  (632) 
FLUTAMIDE

>  <therap>  (632) 
antiandrogen, antineoplastic, Nuclear Hormone receptor antagonist

>  <ref>  (632) 
Methods Princ. Med. Chem. (2008), 39, 249-304; J. Urol. (1975), 114(4), 564-8; Urology (1976), 8(3), 231-3

>  <cas#>  (632) 
13311-84-7

>  <source>  (632) 
synthetic

>  <status>  (632) 
USP, INN, BAN

>  <tradename>  (632) 
EULEXIN

>  <SMILES>  (632) 
CC(C)C(=O)Nc1cc(C(F)(F)F)c([N+](=O)[O-])cc1

>  <standardized_failed>  (632) 
False

$$$$

     RDKit          2D

 28 31  0  0  0  0  0  0  0  0999 V2000
    4.9417   -3.3042    0.0000 C   0  0  0  0  0  0  0  0  0  0  0  0
    4.4500   -2.6417    0.0000 N   0  0  0  0  0  0  0  0  0  0  0  0
    4.4542   -3.9792    0.0000 N   0  0  0  0  0  0  0  0  0  0  0  0
    4.7000   -1.8542    0.0000 C   0  0  0  0  0  0  0  0  0  0  0  0
    3.6667   -2.9042    0.0000 C   0  0  0  0  0  0  0  0  0  0  0  0
    3.6667   -3.7292    0.0000 C   0  0  0  0  0  0  0  0  0  0  0  0
    4.1417   -1.2500    0.0000 C   0  0  0  0  0  0  0  0  0  0  0  0
    5.2042   -0.2875    0.0000 N   0  0  0  0  0  0  0  0  0  0  0  0
    5.7667   -3.3042    0.0000 O   0  0  0  0  0  0  0  0  0  0  0  0
    5.5042   -1.6792    0.0000 C   0  0  0  0  0  0  0  0  0  0  0  0
    7.3250    1.6333    0.0000 C   0  0  0  0  0  0  0  0  0  0  0  0
    7.7917    1.0333    0.0000 C   0  0  0  0  0  0  0  0  0  0  0  0
    4.4000   -0.4625    0.0000 C   0  0  0  0  0  0  0  0  0  0  0  0
    7.5375    2.4333    0.0000 O   0  0  0  0  0  0  0  0  0  0  0  0
    5.7542   -0.9042    0.0000 C   0  0  0  0  0  0  0  0  0  0  0  0
    7.5125    0.3333    0.0000 C   0  0  0  0  0  0  0  0  0  0  0  0
    8.5417    1.1458    0.0000 C   0  0  0  0  0  0  0  0  0  0  0  0
    8.7292   -0.1542    0.0000 C   0  0  0  0  0  0  0  0  0  0  0  0
    9.0125    0.5583    0.0000 C   0  0  0  0  0  0  0  0  0  0  0  0
    7.9792   -0.2625    0.0000 C   0  0  0  0  0  0  0  0  0  0  0  0
    9.2042   -0.7417    0.0000 F   0  0  0  0  0  0  0  0  0  0  0  0
    5.4542    0.4958    0.0000 C   0  0  0  0  0  0  0  0  0  0  0  0
    2.9500   -2.4917    0.0000 C   0  0  0  0  0  0  0  0  0  0  0  0
    2.9500   -4.1417    0.0000 C   0  0  0  0  0  0  0  0  0  0  0  0
    6.2667    0.6708    0.0000 C   0  0  0  0  0  0  0  0  0  0  0  0
    6.5167    1.4583    0.0000 C   0  0  0  0  0  0  0  0  0  0  0  0
    2.2375   -2.9042    0.0000 C   0  0  0  0  0  0  0  0  0  0  0  0
    2.2375   -3.7292    0.0000 C   0  0  0  0  0  0  0  0  0  0  0  0
  2  1  1  0
  3  1  1  0
  4  2  1  0
  5  2  1  0
  6  3  1  0
  7  4  2  0
  8 15  1  0
  9  1  2  0
 10  4  1  0
 11 26  1  0
 12 11  1  0
 13  7  1  0
 14 11  2  0
 15 10  1  0
 16 12  2  0
 17 12  1  0
 18 19  1  0
 19 17  2  0
 20 16  1  0
 21 18  1  0
 22  8  1  0
 23  5  2  0
 24  6  2  0
 25 22  1  0
 26 25  1  0
 27 23  1  0
 28 24  1  0
  5  6  1  0
 27 28  2  0
  8 13  1  0
 20 18  2  0
M  END
>  <ID>  (633) 


>  <MOLENAME>  (633) 
DROPERIDOL

>  <therap>  (633) 
neuroleptic

>  <ref>  (633) 
Anesth. Analg. (2002), 95(4), 789-790; Toxicol. Appl. Pharmacol. (1964), 6(1), 37-47; Arzneim. Forsch. (1963), 13(No. 3), 205-11

>  <cas#>  (633) 
548-73-2

>  <source>  (633) 
synthetic; McN-JR-4749, R-4749

>  <status>  (633) 
USP, INN, BAN, JAN

>  <tradename>  (633) 
INAPSINE

>  <SMILES>  (633) 
O=C(CCCN1CC=C(n2c(=O)[nH]c3ccccc32)CC1)c1ccc(F)cc1

>  <standardized_failed>  (633) 
False

$$$$

     RDKit          2D

 20 20  0  0  0  0  0  0  0  0999 V2000
    8.5000   -5.1250    0.0000 S   0  0  0  0  0  0  0  0  0  0  0  0
    4.0042   -6.0917    0.0000 C   0  0  0  0  0  0  0  0  0  0  0  0
    9.1042   -5.6792    0.0000 N   0  0  0  0  0  0  0  0  0  0  0  0
    3.2167   -5.8417    0.0000 N   0  0  0  0  0  0  0  0  0  0  0  0
    4.6667   -5.6125    0.0000 N   0  0  0  0  0  0  0  0  0  0  0  0
    3.0417   -5.0375    0.0000 C   0  0  0  0  0  0  0  0  0  0  0  0
    4.2625   -6.8792    0.0000 S   0  0  0  0  0  0  0  0  0  0  0  0
    5.3375   -6.1000    0.0000 C   0  0  0  0  0  0  0  0  0  0  0  0
    8.9167   -6.4792    0.0000 C   0  0  0  0  0  0  0  0  0  0  0  0
    5.0750   -6.8875    0.0000 C   0  0  0  0  0  0  0  0  0  0  0  0
    7.9417   -5.7292    0.0000 O   0  0  0  0  0  0  0  0  0  0  0  0
    9.0542   -4.5167    0.0000 O   0  0  0  0  0  0  0  0  0  0  0  0
    7.8917   -4.5667    0.0000 N   0  0  0  0  0  0  0  0  0  0  0  0
    8.1375   -6.7167    0.0000 C   0  0  0  0  0  0  0  0  0  0  0  0
    2.2542   -4.7792    0.0000 N   0  0  0  0  0  0  0  0  0  0  0  0
    3.6542   -4.4792    0.0000 N   0  0  0  0  0  0  0  0  0  0  0  0
    9.5250   -7.0417    0.0000 N   0  0  0  0  0  0  0  0  0  0  0  0
    6.7417   -6.4042    0.0000 S   0  0  0  0  0  0  0  0  0  0  0  0
    6.1292   -5.8417    0.0000 C   0  0  0  0  0  0  0  0  0  0  0  0
    7.5292   -6.1542    0.0000 C   0  0  0  0  0  0  0  0  0  0  0  0
  2  5  2  0
  3  1  1  0
  4  2  1  0
  5  8  1  0
  6  4  2  0
  7 10  1  0
  8 19  1  0
  9  3  2  0
 10  8  2  0
 11  1  2  0
 12  1  2  0
 13  1  1  0
 14  9  1  0
 15  6  1  0
 16  6  1  0
 17  9  1  0
 18 20  1  0
 19 18  1  0
 20 14  1  0
  2  7  1  0
M  END
>  <ID>  (634) 


>  <MOLENAME>  (634) 
FAMOTIDINE

>  <therap>  (634) 
H2 antihistamine

>  <ref>  (634) 
Am J Med 81 Suppl 4B:1 (1986); Scand J Gastroenterol 22 Suppl 134: 1 (1987)

>  <cas#>  (634) 
76824-35-6

>  <source>  (634) 
synthetic; MK-208

>  <status>  (634) 
USP, INN, BAN, JAN

>  <tradename>  (634) 
PEPCID

>  <SMILES>  (634) 
NC(N)=Nc1nc(CSCC/C(N)=N\S(N)(=O)=O)cs1

>  <standardized_failed>  (634) 
False

$$$$

     RDKit          2D

 21 23  0  0  0  0  0  0  0  0999 V2000
    5.1625   -3.8667    0.0000 C   0  0  0  0  0  0  0  0  0  0  0  0
    4.6750   -3.2000    0.0000 N   0  0  0  0  0  0  0  0  0  0  0  0
    4.6792   -4.5375    0.0000 C   0  0  0  0  0  0  0  0  0  0  0  0
    5.9792   -3.9500    0.0000 C   0  0  0  0  0  0  0  0  0  0  0  0
    3.8875   -3.4625    0.0000 C   0  0  0  0  0  0  0  0  0  0  0  0
    3.8917   -4.2875    0.0000 C   0  0  0  0  0  0  0  0  0  0  0  0
    6.5750   -3.3375    0.0000 C   0  0  0  0  0  0  0  0  0  0  0  0
    7.6167   -3.5917    0.0000 C   0  0  0  0  0  0  0  0  0  0  0  0
    6.3167   -4.7000    0.0000 O   0  0  0  0  0  0  0  0  0  0  0  0
    3.1750   -3.0500    0.0000 C   0  0  0  0  0  0  0  0  0  0  0  0
    7.6542   -4.4042    0.0000 O   0  0  0  0  0  0  0  0  0  0  0  0
    5.0167   -5.2875    0.0000 C   0  0  0  0  0  0  0  0  0  0  0  0
    8.4667   -3.1792    0.0000 O   0  0  0  0  0  0  0  0  0  0  0  0
    5.8375   -5.3667    0.0000 C   0  0  0  0  0  0  0  0  0  0  0  0
    3.1750   -4.7042    0.0000 C   0  0  0  0  0  0  0  0  0  0  0  0
    5.8625   -3.0625    0.0000 C   0  0  0  0  0  0  0  0  0  0  0  0
    2.4625   -4.2917    0.0000 C   0  0  0  0  0  0  0  0  0  0  0  0
    2.4625   -3.4667    0.0000 C   0  0  0  0  0  0  0  0  0  0  0  0
    3.1667   -2.2250    0.0000 C   0  0  0  0  0  0  0  0  0  0  0  0
    5.0792   -2.6250    0.0000 C   0  0  0  0  0  0  0  0  0  0  0  0
    3.8875   -1.8125    0.0000 C   0  0  0  0  0  0  0  0  0  0  0  0
  2  1  1  0
  3  1  2  0
  4  1  1  0
  5  2  1  0
  6  3  1  0
  7  4  1  0
  8  7  1  0
  9  4  1  0
 10  5  2  0
 11  8  2  0
 12  3  1  0
 13  8  1  0
 14  9  1  0
 15  6  2  0
 16  4  1  0
 17 15  1  0
 18 10  1  0
 19 10  1  0
 20 16  1  0
 21 19  1  0
  6  5  1  0
 14 12  1  0
 17 18  2  0
M  END
>  <ID>  (635) 


>  <MOLENAME>  (635) 
ETODOLAC

>  <therap>  (635) 
antiinflammatory

>  <ref>  (635) 
Inflammopharmacology (1995), 3(4), 335-45; Med. Res. Rev. (1987), 7(1), 1-28; J. Med. Chem. (1976), 19(6), 787-92

>  <cas#>  (635) 
41340-25-4

>  <source>  (635) 
synthetic; AY-24234

>  <status>  (635) 
USP, INN, BAN

>  <tradename>  (635) 
LODINE

>  <SMILES>  (635) 
CCc1c2[nH]c3c(CCOC3(CC)CC(=O)O)c2ccc1

>  <standardized_failed>  (635) 
False

$$$$

     RDKit          2D

 23 23  0  0  0  0  0  0  0  0999 V2000
    4.5250   -4.0542    0.0000 C   0  0  0  0  0  0  0  0  0  0  0  0
    4.1125   -4.7667    0.0000 C   0  0  0  0  0  0  0  0  0  0  0  0
    4.1125   -3.3417    0.0000 C   0  0  0  0  0  0  0  0  0  0  0  0
    3.2875   -4.7667    0.0000 C   0  0  0  0  0  0  0  0  0  0  0  0
    3.2875   -3.3417    0.0000 C   0  0  0  0  0  0  0  0  0  0  0  0
    2.8792   -4.0542    0.0000 C   0  0  0  0  0  0  0  0  0  0  0  0
    6.5875   -4.7667    0.0000 N   0  0  0  0  0  0  0  0  0  0  0  0
    5.3500   -4.0542    0.0000 C   0  0  0  0  0  0  0  0  0  0  0  0
    5.7625   -4.7667    0.0000 C   0  0  0  0  0  0  0  0  0  0  0  0
    8.2375   -6.2000    0.0000 C   0  0  0  0  0  0  0  0  0  0  0  0
    9.0625   -7.6250    0.0000 C   0  0  0  0  0  0  0  0  0  0  0  0
    7.8250   -5.4875    0.0000 C   0  0  0  0  0  0  0  0  0  0  0  0
    2.8750   -2.6292    0.0000 O   0  0  0  0  0  0  0  0  0  0  0  0
    2.8792   -5.4792    0.0000 O   0  0  0  0  0  0  0  0  0  0  0  0
    8.6667   -4.2125    0.0000 Br  0  0  0  0  0  0  0  0  0  0  0  0
    7.8250   -6.9042    0.0000 C   0  0  0  0  0  0  0  0  0  0  0  0
    9.0625   -6.1917    0.0000 C   0  0  0  0  0  0  0  0  0  0  0  0
    9.4750   -6.9042    0.0000 C   0  0  0  0  0  0  0  0  0  0  0  0
    8.2375   -7.6250    0.0000 C   0  0  0  0  0  0  0  0  0  0  0  0
    5.7625   -3.3417    0.0000 O   0  0  0  0  0  0  0  0  0  0  0  0
    9.4750   -8.3417    0.0000 O   0  0  0  0  0  0  0  0  0  0  0  0
    7.0000   -5.4875    0.0000 C   0  0  0  0  0  0  0  0  0  0  0  0
    6.5875   -6.2000    0.0000 C   0  0  0  0  0  0  0  0  0  0  0  0
  2  1  2  0
  3  1  1  0
  4  2  1  0
  5  3  2  0
  6  5  1  0
  7  9  1  0
  8  1  1  0
  9  8  1  0
 10 12  1  0
 11 19  2  0
 12 22  1  0
 13  5  1  0
 14  4  1  0
 16 10  2  0
 17 10  1  0
 18 17  2  0
 19 16  1  0
 20  8  1  0
 21 11  1  0
 22  7  1  0
 23 22  1  0
  4  6  2  0
 18 11  1  0
M  END
>  <ID>  (636) 


>  <MOLENAME>  (636) 
FENOTEROL HYDROBROMIDE

>  <therap>  (636) 
betaadrenergic agonist

>  <ref>  (636) 
J. Allergy and Clin. Immunol. (1981), 68(2), 91-7; Eur. J. Pharmacol. (1970), 12(1), 35-43; Arzneim. Forsch. (1967), 17(3), 362-4

>  <cas#>  (636) 
13392-18-2

>  <source>  (636) 
synthetic; TH-1165a

>  <status>  (636) 
USAN, INN, BAN, JAN

>  <tradename>  (636) 
BEROTEC

>  <SMILES>  (636) 
CC(Cc1ccc(O)cc1)NCC(O)c1cc(O)cc(O)c1

>  <standardized_failed>  (636) 
False

$$$$

     RDKit          2D

 19 20  0  0  0  0  0  0  0  0999 V2000
    6.9792   -2.8167    0.0000 C   0  0  0  0  0  0  0  0  0  0  0  0
    8.6375   -4.2542    0.0000 C   0  0  0  0  0  0  0  0  0  0  0  0
    6.1500   -2.8167    0.0000 C   0  0  0  0  0  0  0  0  0  0  0  0
    4.4917   -2.8167    0.0000 C   0  0  0  0  0  0  0  0  0  0  0  0
    8.2250   -4.9667    0.0000 O   0  0  0  0  0  0  0  0  0  0  0  0
    7.3917   -2.1000    0.0000 O   0  0  0  0  0  0  0  0  0  0  0  0
    5.7292   -3.5375    0.0000 C   0  0  0  0  0  0  0  0  0  0  0  0
    5.7292   -2.0917    0.0000 C   0  0  0  0  0  0  0  0  0  0  0  0
    4.9042   -3.5375    0.0000 C   0  0  0  0  0  0  0  0  0  0  0  0
    4.9042   -2.1000    0.0000 C   0  0  0  0  0  0  0  0  0  0  0  0
    7.3917   -3.5292    0.0000 C   0  0  0  0  0  0  0  0  0  0  0  0
    3.6667   -2.8167    0.0000 C   0  0  0  0  0  0  0  0  0  0  0  0
    8.2250   -3.5292    0.0000 C   0  0  0  0  0  0  0  0  0  0  0  0
    9.4667   -4.2500    0.0000 O   0  0  0  0  0  0  0  0  0  0  0  0
    3.2542   -2.1000    0.0000 C   0  0  0  0  0  0  0  0  0  0  0  0
    3.2542   -3.5292    0.0000 C   0  0  0  0  0  0  0  0  0  0  0  0
    2.4250   -2.1042    0.0000 C   0  0  0  0  0  0  0  0  0  0  0  0
    2.4250   -3.5292    0.0000 C   0  0  0  0  0  0  0  0  0  0  0  0
    2.0042   -2.8167    0.0000 C   0  0  0  0  0  0  0  0  0  0  0  0
  2 13  1  0
  3  1  1  0
  4 10  1  0
  5  2  2  0
  6  1  2  0
  7  3  2  0
  8  3  1  0
  9  7  1  0
 10  8  2  0
 11  1  1  0
 12  4  1  0
 13 11  1  0
 14  2  1  0
 15 12  2  0
 16 12  1  0
 17 15  1  0
 18 16  2  0
 19 18  1  0
  4  9  2  0
 17 19  2  0
M  END
>  <ID>  (637) 


>  <MOLENAME>  (637) 
FENBUFEN

>  <therap>  (637) 
antiinflammatory

>  <ref>  (637) 
Drugs (1981), 21(1), 1-22; Arzneim. Forsch. (1980), 30(4A), 695-702; J. Pharm. Sci. (1977), 66(4), 466-76

>  <cas#>  (637) 
36330-85-5

>  <source>  (637) 
synthetic; CL-82204

>  <status>  (637) 
USAN, INN, BAN, JAN

>  <tradename>  (637) 
nan

>  <SMILES>  (637) 
O=C(O)CCC(=O)c1ccc(-c2ccccc2)cc1

>  <standardized_failed>  (637) 
False

$$$$

     RDKit          2D

 32 32  0  0  0  0  0  0  0  0999 V2000
    9.0667   -4.1417    0.0000 C   0  0  0  0  0  0  0  0  0  0  0  0
    9.4750   -4.8542    0.0000 C   0  0  0  0  0  0  0  0  0  0  0  0
   10.2875   -4.8542    0.0000 C   0  0  0  0  0  0  0  0  0  0  0  0
   10.6917   -5.5667    0.0000 C   0  0  0  0  0  0  0  0  0  0  0  0
   10.2792   -6.2667    0.0000 C   0  0  0  0  0  0  0  0  0  0  0  0
    4.5792   -6.3917    0.0000 C   0  0  0  0  0  0  0  0  0  0  0  0
    5.4042   -6.3792    0.0000 N   0  0  0  0  0  0  0  0  0  0  0  0
    9.4625   -3.4167    0.0000 O   0  0  0  0  0  0  0  0  0  0  0  0
    4.1500   -5.6917    0.0000 C   0  0  0  0  0  0  0  0  0  0  0  0
    9.0625   -5.5542    0.0000 C   0  0  0  0  0  0  0  0  0  0  0  0
    9.4667   -6.2667    0.0000 C   0  0  0  0  0  0  0  0  0  0  0  0
    3.3250   -5.7167    0.0000 C   0  0  0  0  0  0  0  0  0  0  0  0
    8.2417   -4.1667    0.0000 O   0  0  0  0  0  0  0  0  0  0  0  0
    1.6792   -5.7542    0.0000 C   0  0  0  0  0  0  0  0  0  0  0  0
   11.5167   -5.5667    0.0000 O   0  0  0  0  0  0  0  0  0  0  0  0
    7.9500   -6.8667    0.0000 Cl  0  0  0  0  0  0  0  0  0  0  0  0
    2.9292   -6.4292    0.0000 C   0  0  0  0  0  0  0  0  0  0  0  0
    2.8917   -5.0042    0.0000 C   0  0  0  0  0  0  0  0  0  0  0  0
   10.6917   -6.9917    0.0000 O   0  0  0  0  0  0  0  0  0  0  0  0
    2.1125   -6.4542    0.0000 C   0  0  0  0  0  0  0  0  0  0  0  0
    2.0667   -5.0292    0.0000 C   0  0  0  0  0  0  0  0  0  0  0  0
    0.8542   -5.7792    0.0000 O   0  0  0  0  0  0  0  0  0  0  0  0
    5.8292   -7.0792    0.0000 C   0  0  0  0  0  0  0  0  0  0  0  0
    5.8000   -5.6542    0.0000 C   0  0  0  0  0  0  0  0  0  0  0  0
    4.1875   -7.1167    0.0000 C   0  0  0  0  0  0  0  0  0  0  0  0
    7.8417   -4.8917    0.0000 C   0  0  0  0  0  0  0  0  0  0  0  0
   11.9292   -6.2917    0.0000 C   0  0  0  0  0  0  0  0  0  0  0  0
   10.2667   -7.7042    0.0000 C   0  0  0  0  0  0  0  0  0  0  0  0
    0.4167   -5.0667    0.0000 C   0  0  0  0  0  0  0  0  0  0  0  0
    6.6250   -5.6292    0.0000 C   0  0  0  0  0  0  0  0  0  0  0  0
    7.0167   -4.9042    0.0000 C   0  0  0  0  0  0  0  0  0  0  0  0
    6.6542   -7.0542    0.0000 C   0  0  0  0  0  0  0  0  0  0  0  0
  2  1  1  0
  3  2  2  0
  4  3  1  0
  5 11  1  0
  6  7  1  0
  7 24  1  0
  8  1  2  0
  9  6  1  0
 10  2  1  0
 11 10  2  0
 12  9  1  0
 13  1  1  0
 14 20  2  0
 15  4  1  0
 17 12  2  0
 18 12  1  0
 19  5  1  0
 20 17  1  0
 21 18  2  0
 22 14  1  0
 23  7  1  0
 24 30  1  0
 25  6  1  0
 26 13  1  0
 27 15  1  0
 28 19  1  0
 29 22  1  0
 30 31  1  0
 31 26  1  0
 32 23  1  0
  4  5  2  0
 21 14  1  0
M  END
>  <ID>  (638) 


>  <MOLENAME>  (638) 
MEBEVERINE HYDROCHLORIDE

>  <therap>  (638) 
muscle relaxant (smooth)

>  <ref>  (638) 
Pharmacol. Res. Comm. (1969), 1(3), 303-9; Arch. Int. Pharmacodyn. Ther. (1963), 145, 378-95; J. Med. Chem. (1963), 6, 97-101

>  <cas#>  (638) 
2753-45-9, 3625-06-7 [mebeverine]

>  <source>  (638) 
synthetic; CSAG-144

>  <status>  (638) 
USAN, INN, BAN

>  <tradename>  (638) 
COLOFAC

>  <SMILES>  (638) 
CCN(CCCCOC(=O)c1cc(OC)c(OC)cc1)C(C)Cc1ccc(OC)cc1

>  <standardized_failed>  (638) 
False

$$$$

     RDKit          2D

 12 13  0  0  0  0  0  0  0  0999 V2000
    4.7542   -1.2417    0.0000 N   0  0  0  0  0  0  0  0  0  0  0  0
    5.4667   -2.4875    0.0000 C   0  0  0  0  0  0  0  0  0  0  0  0
    6.1792   -2.9000    0.0000 O   0  0  0  0  0  0  0  0  0  0  0  0
    6.8917   -2.4875    0.0000 C   0  0  0  0  0  0  0  0  0  0  0  0
    5.4667   -1.6625    0.0000 C   0  0  0  0  0  0  0  0  0  0  0  0
    4.7542   -2.8917    0.0000 C   0  0  0  0  0  0  0  0  0  0  0  0
    6.9042   -1.6625    0.0000 O   0  0  0  0  0  0  0  0  0  0  0  0
    5.0417   -2.5042    0.0000 C   0  0  0  0  0  0  0  0  0  0  0  0
    4.0417   -2.4875    0.0000 C   0  0  0  0  0  0  0  0  0  0  0  0
    4.0417   -1.6625    0.0000 C   0  0  0  0  0  0  0  0  0  0  0  0
    4.5542   -1.9917    0.0000 C   0  0  0  0  0  0  0  0  0  0  0  0
    7.6167   -2.9000    0.0000 C   0  0  0  0  0  0  0  0  0  0  0  0
  2  5  1  0
  3  2  1  0
  4  3  1  0
  5  1  1  0
  6  8  1  0
  7  4  2  0
  8 11  1  0
  9 10  1  0
 10  1  1  0
 11  1  1  0
 12  4  1  0
  6  9  1  0
  2  6  1  0
M  END
>  <ID>  (639) 


>  <MOLENAME>  (639) 
ACECLIDINE

>  <therap>  (639) 
muscarinic ACh agonist, antiglaucoma

>  <ref>  (639) 
Mol Pharm 21:594 (1982); Eur J Pharmacol 238:343 (1993); J Pharmacol Exp Ther 279:1335 (1996))

>  <cas#>  (639) 
827-61-2

>  <source>  (639) 
synthetic

>  <status>  (639) 
USAN, INN

>  <tradename>  (639) 
GLAUCOSTAT

>  <SMILES>  (639) 
CC(=O)OC1CN2CCC1CC2

>  <standardized_failed>  (639) 
False

$$$$

     RDKit          2D

 22 22  0  0  0  0  0  0  0  0999 V2000
    0.0292    0.6750    0.0000 C   0  0  0  0  0  0  0  0  0  0  0  0
    3.6000    1.0833    0.0000 C   0  0  0  0  0  0  0  0  0  0  0  0
    0.0292   -0.1500    0.0000 C   0  0  0  0  0  0  0  0  0  0  0  0
    2.8792    0.6708    0.0000 N   0  0  0  0  0  0  0  0  0  0  0  0
    0.7417    1.0875    0.0000 C   0  0  0  0  0  0  0  0  0  0  0  0
    3.6042    1.9083    0.0000 O   0  0  0  0  0  0  0  0  0  0  0  0
    0.7417   -0.5625    0.0000 C   0  0  0  0  0  0  0  0  0  0  0  0
    5.7292   -2.6417    0.0000 C   0  0  0  0  0  0  0  0  0  0  0  0
    5.7292   -1.8167    0.0000 C   0  0  0  0  0  0  0  0  0  0  0  0
    1.4542    0.6750    0.0000 C   0  0  0  0  0  0  0  0  0  0  0  0
    2.1667    1.0833    0.0000 C   0  0  0  0  0  0  0  0  0  0  0  0
    1.4542   -0.1500    0.0000 C   0  0  0  0  0  0  0  0  0  0  0  0
   -0.6833    1.0833    0.0000 O   0  0  0  0  0  0  0  0  0  0  0  0
   -0.6833   -0.5667    0.0000 O   0  0  0  0  0  0  0  0  0  0  0  0
    4.3125    0.6625    0.0000 C   0  0  0  0  0  0  0  0  0  0  0  0
    6.4417   -3.0542    0.0000 C   0  0  0  0  0  0  0  0  0  0  0  0
    5.0167   -1.4000    0.0000 C   0  0  0  0  0  0  0  0  0  0  0  0
   -0.6875    1.9083    0.0000 C   0  0  0  0  0  0  0  0  0  0  0  0
    4.3125   -0.1542    0.0000 C   0  0  0  0  0  0  0  0  0  0  0  0
    5.0250   -0.5750    0.0000 C   0  0  0  0  0  0  0  0  0  0  0  0
    6.4417   -3.8792    0.0000 C   0  0  0  0  0  0  0  0  0  0  0  0
    7.1542   -2.6417    0.0000 C   0  0  0  0  0  0  0  0  0  0  0  0
  2  4  1  0
  3  1  2  0
  4 11  1  0
  5  1  1  0
  6  2  2  0
  7  3  1  0
  8  9  2  0
  9 17  1  0
 10  5  2  0
 11 10  1  0
 12 10  1  0
 13  1  1  0
 14  3  1  0
 15  2  1  0
 16  8  1  0
 17 20  1  0
 18 13  1  0
 19 15  1  0
 20 19  1  0
 21 16  1  0
 22 16  1  0
  7 12  2  0
M  END
>  <ID>  (640) 


>  <MOLENAME>  (640) 
CAPSAICIN

>  <therap>  (640) 
analgesic (topical), depletes Substance P, neurotoxic

>  <ref>  (640) 
J Chem Soc 1955: 1025; Life Sci 25: 1273 (1979); Trends Pharmacol Sci 11: 330 (1990)

>  <cas#>  (640) 
404-86-4

>  <source>  (640) 
Capsicum spp

>  <status>  (640) 
USP

>  <tradename>  (640) 
nan

>  <SMILES>  (640) 
COc1c(O)ccc(CNC(=O)CCCC/C=C/C(C)C)c1

>  <standardized_failed>  (640) 
False

$$$$

     RDKit          2D

  7  7  0  0  0  0  0  0  0  0999 V2000
   -0.1208   -0.9667    0.0000 N   0  0  0  0  0  0  0  0  0  0  0  0
    1.5292   -0.9625    0.0000 C   0  0  0  0  0  0  0  0  0  0  0  0
    2.3542   -0.9625    0.0000 N   0  0  0  0  0  0  0  0  0  0  0  0
    1.1167   -0.2500    0.0000 C   0  0  0  0  0  0  0  0  0  0  0  0
    1.1167   -1.6750    0.0000 C   0  0  0  0  0  0  0  0  0  0  0  0
    0.2917   -0.2542    0.0000 C   0  0  0  0  0  0  0  0  0  0  0  0
    0.2917   -1.6792    0.0000 C   0  0  0  0  0  0  0  0  0  0  0  0
  2  5  1  0
  3  2  1  0
  4  6  1  0
  5  7  2  0
  6  1  2  0
  7  1  1  0
  4  2  2  0
M  END
>  <ID>  (641) 


>  <MOLENAME>  (641) 
FAMPRIDINE

>  <therap>  (641) 
K channel blocker; multiple sclerosis therapy

>  <ref>  (641) 
J Pharmacol Exp Ther  275: 864 (1995)

>  <cas#>  (641) 
504-24-5

>  <source>  (641) 
synthetic; EL-970

>  <status>  (641) 
USAN, INN

>  <tradename>  (641) 
NEURELAN

>  <SMILES>  (641) 
Nc1ccncc1

>  <standardized_failed>  (641) 
False

$$$$

     RDKit          2D

 31 35  0  0  0  0  0  0  0  0999 V2000
    4.2750   -6.9292    0.0000 C   0  0  0  0  0  0  0  0  0  0  0  0
    4.2750   -8.5792    0.0000 C   0  0  0  0  0  0  0  0  0  0  0  0
    3.5625   -7.3417    0.0000 C   0  0  0  0  0  0  0  0  0  0  0  0
    4.9917   -7.3417    0.0000 C   0  0  0  0  0  0  0  0  0  0  0  0
    3.5625   -8.1667    0.0000 C   0  0  0  0  0  0  0  0  0  0  0  0
    3.0250   -9.3917    0.0000 N   0  0  0  0  0  0  0  0  0  0  0  0
    5.7042   -6.9292    0.0000 N   0  0  0  0  0  0  0  0  0  0  0  0
    4.1000   -9.3917    0.0000 C   0  0  0  0  0  0  0  0  0  0  0  0
    2.8500   -8.5792    0.0000 C   0  0  0  0  0  0  0  0  0  0  0  0
    4.9917   -8.1667    0.0000 C   0  0  0  0  0  0  0  0  0  0  0  0
    3.5417   -3.2167    0.0000 C   0  0  0  0  0  0  0  0  0  0  0  0
    4.2542   -3.6292    0.0000 C   0  0  0  0  0  0  0  0  0  0  0  0
    4.2750   -6.1042    0.0000 C   0  0  0  0  0  0  0  0  0  0  0  0
    5.7042   -6.1042    0.0000 C   0  0  0  0  0  0  0  0  0  0  0  0
    4.9875   -5.6917    0.0000 C   0  0  0  0  0  0  0  0  0  0  0  0
    2.1042   -3.2167    0.0000 N   0  0  0  0  0  0  0  0  0  0  0  0
    4.2625   -4.4542    0.0000 O   0  0  0  0  0  0  0  0  0  0  0  0
    3.5417   -2.3917    0.0000 C   0  0  0  0  0  0  0  0  0  0  0  0
    4.9667   -3.2167    0.0000 O   0  0  0  0  0  0  0  0  0  0  0  0
    3.6917   -6.3542    0.0000 O   0  0  0  0  0  0  0  0  0  0  0  0
    4.9792   -4.8667    0.0000 C   0  0  0  0  0  0  0  0  0  0  0  0
    2.8250   -3.6292    0.0000 C   0  0  0  0  0  0  0  0  0  0  0  0
    2.8292   -1.9792    0.0000 C   0  0  0  0  0  0  0  0  0  0  0  0
    2.8500   -6.9292    0.0000 C   0  0  0  0  0  0  0  0  0  0  0  0
    2.4125   -9.9417    0.0000 C   0  0  0  0  0  0  0  0  0  0  0  0
    6.4292   -7.3542    0.0000 C   0  0  0  0  0  0  0  0  0  0  0  0
    2.8375   -1.1542    0.0000 Br  0  0  0  0  0  0  0  0  0  0  0  0
    2.1292   -8.1667    0.0000 C   0  0  0  0  0  0  0  0  0  0  0  0
    2.1042   -2.3917    0.0000 C   0  0  0  0  0  0  0  0  0  0  0  0
    2.1292   -7.3417    0.0000 C   0  0  0  0  0  0  0  0  0  0  0  0
    2.9042   -6.5667    0.0000 C   0  0  0  0  0  0  0  0  0  0  0  0
  2 10  1  0
  3  1  1  0
  4  1  1  0
  5  3  1  0
  6  9  1  0
  7  4  1  0
  8  2  2  0
  9  5  2  0
  4 10  1  6
 11 12  1  0
 12 17  1  0
 13  1  1  0
 14 15  1  0
 15 13  1  0
 16 22  2  0
 17 21  1  0
 18 11  2  0
 19 12  2  0
  1 20  1  6
 15 21  1  1
 22 11  1  0
 23 18  1  0
 24  3  2  0
 25  6  1  0
 26  7  1  0
 27 23  1  0
 28 30  2  0
 29 16  1  0
 30 24  1  0
 31 20  1  0
  5  2  1  0
  7 14  1  0
  8  6  1  0
 28  9  1  0
 23 29  2  0
M  END
>  <ID>  (642) 


>  <MOLENAME>  (642) 
NICERGOLINE

>  <therap>  (642) 
vasodilator

>  <ref>  (642) 
Clin. Drug Invest. (2008), 28(9), 533-552; J. Pharm. Pharmacol. (1972), 24(9), 741-2; Fitoterapia (1968), 39(2), 54-9

>  <cas#>  (642) 
27848-84-6

>  <source>  (642) 
synthetic

>  <status>  (642) 
USAN, INN, BAN, JAN

>  <tradename>  (642) 
SERMION

>  <SMILES>  (642) 
CO[C@]12C[C@@H](COC(=O)c3cc(Br)cnc3)CN(C)[C@@H]1Cc1cn(C)c3c1c2ccc3

>  <standardized_failed>  (642) 
False

$$$$

     RDKit          2D

 29 32  0  0  0  0  0  0  0  0999 V2000
    5.8542  -12.5167    0.0000 C   0  0  0  0  0  0  0  0  0  0  0  0
    5.8042  -13.3417    0.0000 N   0  0  0  0  0  0  0  0  0  0  0  0
    7.0917  -13.0167    0.0000 N   0  0  0  0  0  0  0  0  0  0  0  0
    6.6542  -12.3250    0.0000 C   0  0  0  0  0  0  0  0  0  0  0  0
    6.5667  -13.6542    0.0000 C   0  0  0  0  0  0  0  0  0  0  0  0
    5.1292  -12.9292    0.0000 C   0  0  0  0  0  0  0  0  0  0  0  0
    5.8667  -11.7000    0.0000 C   0  0  0  0  0  0  0  0  0  0  0  0
    4.4375  -11.6792    0.0000 N   0  0  0  0  0  0  0  0  0  0  0  0
    5.2042  -13.9250    0.0000 C   0  0  0  0  0  0  0  0  0  0  0  0
    1.7250  -12.5542    0.0000 C   0  0  0  0  0  0  0  0  0  0  0  0
    0.9125  -12.3792    0.0000 C   0  0  0  0  0  0  0  0  0  0  0  0
    6.9667  -11.5542    0.0000 O   0  0  0  0  0  0  0  0  0  0  0  0
    5.1542  -11.2750    0.0000 C   0  0  0  0  0  0  0  0  0  0  0  0
    4.4167  -12.5042    0.0000 C   0  0  0  0  0  0  0  0  0  0  0  0
    1.9792  -13.3417    0.0000 O   0  0  0  0  0  0  0  0  0  0  0  0
    0.3542  -12.9875    0.0000 C   0  0  0  0  0  0  0  0  0  0  0  0
    0.6542  -11.5917    0.0000 C   0  0  0  0  0  0  0  0  0  0  0  0
   -0.7000  -12.0292    0.0000 C   0  0  0  0  0  0  0  0  0  0  0  0
   -0.4458  -12.8125    0.0000 C   0  0  0  0  0  0  0  0  0  0  0  0
   -0.1458  -11.4167    0.0000 C   0  0  0  0  0  0  0  0  0  0  0  0
   -1.5208  -11.8667    0.0000 F   0  0  0  0  0  0  0  0  0  0  0  0
    3.6292  -11.5042    0.0000 C   0  0  0  0  0  0  0  0  0  0  0  0
    3.0792  -12.1167    0.0000 C   0  0  0  0  0  0  0  0  0  0  0  0
    2.2792  -11.9417    0.0000 C   0  0  0  0  0  0  0  0  0  0  0  0
    5.4125  -14.7292    0.0000 C   0  0  0  0  0  0  0  0  0  0  0  0
    4.4125  -13.6917    0.0000 C   0  0  0  0  0  0  0  0  0  0  0  0
    3.8167  -14.2667    0.0000 C   0  0  0  0  0  0  0  0  0  0  0  0
    4.8167  -15.3042    0.0000 C   0  0  0  0  0  0  0  0  0  0  0  0
    4.0167  -15.0792    0.0000 C   0  0  0  0  0  0  0  0  0  0  0  0
  2  1  1  0
  3  4  1  0
  4  1  1  0
  5  2  1  0
  6  1  1  0
  7  1  1  0
  8 13  1  0
  9  2  1  0
 10 24  1  0
 11 10  1  0
 12  4  2  0
 13  7  1  0
 14  6  1  0
 15 10  2  0
 16 11  2  0
 17 11  1  0
 18 20  1  0
 19 16  1  0
 20 17  2  0
 21 18  1  0
 22  8  1  0
 23 22  1  0
 24 23  1  0
 25  9  2  0
 26  9  1  0
 27 26  2  0
 28 25  1  0
 29 27  1  0
 14  8  1  0
  3  5  1  0
 28 29  2  0
 18 19  2  0
M  END
>  <ID>  (643) 


>  <MOLENAME>  (643) 
SPIPERONE

>  <therap>  (643) 
antipsychotic

>  <ref>  (643) 
J Neural Transmission 43:113 (1978); J Neuroscience 15:5574 (1995)

>  <cas#>  (643) 
749-02-0

>  <source>  (643) 
synthetic; R-5147

>  <status>  (643) 
USAN, INN, BAN, JAN

>  <tradename>  (643) 
SPIROPITAN

>  <SMILES>  (643) 
O=C(CCCN1CCC2(CC1)C(=O)NCN2c1ccccc1)c1ccc(F)cc1

>  <standardized_failed>  (643) 
False

$$$$

     RDKit          2D

 72 73  0  0  0  0  0  0  0  0999 V2000
   11.2417   -5.7875    0.0000 C   0  0  0  0  0  0  0  0  0  0  0  0
   10.5167   -6.1917    0.0000 C   0  0  0  0  0  0  0  0  0  0  0  0
    7.6917   -6.0667    0.0000 C   0  0  0  0  0  0  0  0  0  0  0  0
    6.2042   -5.3917    0.0000 C   0  0  0  0  0  0  0  0  0  0  0  0
   14.6750   -0.9542    0.0000 S   0  0  0  0  0  0  0  0  0  0  0  0
    5.1667   -3.4167    0.0000 C   0  0  0  0  0  0  0  0  0  0  0  0
    6.9917   -5.6250    0.0000 C   0  0  0  0  0  0  0  0  0  0  0  0
    9.0375   -5.4250    0.0000 C   0  0  0  0  0  0  0  0  0  0  0  0
    8.5250   -6.0667    0.0000 C   0  0  0  0  0  0  0  0  0  0  0  0
    6.4917   -2.8792    0.0000 C   0  0  0  0  0  0  0  0  0  0  0  0
    5.7042   -4.7375    0.0000 O   0  0  0  0  0  0  0  0  0  0  0  0
    5.6750   -2.7667    0.0000 C   0  0  0  0  0  0  0  0  0  0  0  0
   11.9500   -6.2042    0.0000 C   0  0  0  0  0  0  0  0  0  0  0  0
    6.8000   -3.6417    0.0000 C   0  0  0  0  0  0  0  0  0  0  0  0
    9.8000   -5.8000    0.0000 O   0  0  0  0  0  0  0  0  0  0  0  0
    6.9000   -8.8667    0.0000 C   0  0  0  0  0  0  0  0  0  0  0  0
    8.7375   -4.6542    0.0000 C   0  0  0  0  0  0  0  0  0  0  0  0
    6.9000   -7.4417    0.0000 C   0  0  0  0  0  0  0  0  0  0  0  0
    7.3125   -8.1500    0.0000 C   0  0  0  0  0  0  0  0  0  0  0  0
   10.5167   -7.0042    0.0000 O   0  0  0  0  0  0  0  0  0  0  0  0
    6.0667   -7.4417    0.0000 O   0  0  0  0  0  0  0  0  0  0  0  0
    5.0542   -4.2292    0.0000 C   0  0  0  0  0  0  0  0  0  0  0  0
    6.0792   -8.8750    0.0000 C   0  0  0  0  0  0  0  0  0  0  0  0
    7.3042   -6.7250    0.0000 O   0  0  0  0  0  0  0  0  0  0  0  0
    5.6542   -8.1625    0.0000 C   0  0  0  0  0  0  0  0  0  0  0  0
    7.6167   -3.7667    0.0000 C   0  0  0  0  0  0  0  0  0  0  0  0
   11.2542   -4.9542    0.0000 O   0  0  0  0  0  0  0  0  0  0  0  0
    7.9167   -4.5292    0.0000 C   0  0  0  0  0  0  0  0  0  0  0  0
   11.9500   -7.0292    0.0000 C   0  0  0  0  0  0  0  0  0  0  0  0
   11.8167   -4.3042    0.0000 C   0  0  0  0  0  0  0  0  0  0  0  0
   14.8500   -1.6042    0.0000 O   0  0  0  0  0  0  0  0  0  0  0  0
   14.6667   -0.2792    0.0000 O   0  0  0  0  0  0  0  0  0  0  0  0
   12.6542   -5.8000    0.0000 N   0  0  0  0  0  0  0  0  0  0  0  0
    5.7292   -6.0875    0.0000 O   0  0  0  0  0  0  0  0  0  0  0  0
   11.2375   -7.4375    0.0000 C   0  0  0  0  0  0  0  0  0  0  0  0
    6.2792   -4.3000    0.0000 O   0  0  0  0  0  0  0  0  0  0  0  0
   15.2542   -1.2792    0.0000 O   0  0  0  0  0  0  0  0  0  0  0  0
   12.6500   -4.3042    0.0000 O   0  0  0  0  0  0  0  0  0  0  0  0
   14.0917   -1.2917    0.0000 O   0  0  0  0  0  0  0  0  0  0  0  0
    4.5167   -2.9125    0.0000 O   0  0  0  0  0  0  0  0  0  0  0  0
    9.5417   -4.4917    0.0000 O   0  0  0  0  0  0  0  0  0  0  0  0
    5.3667   -1.9917    0.0000 O   0  0  0  0  0  0  0  0  0  0  0  0
    6.4875   -9.6250    0.0000 O   0  0  0  0  0  0  0  0  0  0  0  0
    5.6667   -9.5917    0.0000 O   0  0  0  0  0  0  0  0  0  0  0  0
    4.4042   -3.7292    0.0000 C   0  0  0  0  0  0  0  0  0  0  0  0
    7.3042   -4.8292    0.0000 C   0  0  0  0  0  0  0  0  0  0  0  0
    8.8917   -6.8125    0.0000 C   0  0  0  0  0  0  0  0  0  0  0  0
    7.0125   -2.2292    0.0000 C   0  0  0  0  0  0  0  0  0  0  0  0
    7.5042   -9.4042    0.0000 C   0  0  0  0  0  0  0  0  0  0  0  0
    9.0000   -3.8750    0.0000 C   0  0  0  0  0  0  0  0  0  0  0  0
    4.2792   -4.5417    0.0000 C   0  0  0  0  0  0  0  0  0  0  0  0
    4.8250   -8.1667    0.0000 C   0  0  0  0  0  0  0  0  0  0  0  0
    8.1292   -3.1167    0.0000 C   0  0  0  0  0  0  0  0  0  0  0  0
   11.4042   -3.5875    0.0000 C   0  0  0  0  0  0  0  0  0  0  0  0
   13.3542   -6.2042    0.0000 C   0  0  0  0  0  0  0  0  0  0  0  0
   12.6625   -4.9750    0.0000 C   0  0  0  0  0  0  0  0  0  0  0  0
   11.2292   -8.2625    0.0000 C   0  0  0  0  0  0  0  0  0  0  0  0
   13.5042   -0.9542    0.0000 C   0  0  0  0  0  0  0  0  0  0  0  0
    6.9000  -10.3417    0.0000 C   0  0  0  0  0  0  0  0  0  0  0  0
   12.9250   -1.2917    0.0000 C   0  0  0  0  0  0  0  0  0  0  0  0
    7.6792   -0.9750    0.0000 C   0  0  0  0  0  0  0  0  0  0  0  0
    8.2625   -1.3042    0.0000 C   0  0  0  0  0  0  0  0  0  0  0  0
   11.1792   -0.9625    0.0000 C   0  0  0  0  0  0  0  0  0  0  0  0
   11.7625   -1.2917    0.0000 C   0  0  0  0  0  0  0  0  0  0  0  0
   12.3417   -0.9542    0.0000 C   0  0  0  0  0  0  0  0  0  0  0  0
    8.8417   -0.9667    0.0000 C   0  0  0  0  0  0  0  0  0  0  0  0
    9.4292   -1.3042    0.0000 C   0  0  0  0  0  0  0  0  0  0  0  0
   10.0125   -0.9667    0.0000 C   0  0  0  0  0  0  0  0  0  0  0  0
   10.5917   -1.3000    0.0000 C   0  0  0  0  0  0  0  0  0  0  0  0
    4.1667   -5.3667    0.0000 C   0  0  0  0  0  0  0  0  0  0  0  0
   11.8167   -2.8667    0.0000 C   0  0  0  0  0  0  0  0  0  0  0  0
    7.0917   -1.3125    0.0000 C   0  0  0  0  0  0  0  0  0  0  0  0
  2  1  1  0
  3  9  1  0
  4  7  1  0
  6 12  1  0
  7  3  1  0
  8 15  1  6
  9  8  1  0
 10 14  1  0
 11  4  1  0
 12 10  1  0
 13  1  1  0
 14 26  1  0
  2 15  1  1
 16 19  1  0
 17  8  1  0
 18 24  1  1
 19 18  1  0
 20  2  1  0
 21 18  1  0
 22 11  1  0
 23 25  1  0
  3 24  1  6
 25 21  1  0
 26 28  1  0
  1 27  1  6
 28 17  1  0
 29 13  1  0
 30 27  1  0
 31  5  2  0
 32  5  2  0
 13 33  1  1
 34  4  2  0
 35 29  1  0
 36 14  2  0
 37  5  1  0
 38 30  2  0
 39  5  1  0
  6 40  1  0
 17 41  1  0
 12 42  1  6
 16 43  1  0
 23 44  1  1
  6 45  1  6
  7 46  1  6
  9 47  1  1
 10 48  1  1
 16 49  1  6
 17 50  1  6
 22 51  1  6
 25 52  1  6
 26 53  1  6
 54 30  1  0
 55 33  1  0
 56 33  1  0
 35 57  1  1
 58 39  1  0
 59 43  1  0
 60 58  1  0
 61 62  1  0
 62 66  1  0
 63 64  1  0
 64 65  1  0
 65 60  1  0
 66 67  1  0
 67 68  1  0
 68 69  1  0
 69 63  1  0
 70 51  1  0
 71 54  1  0
 72 61  1  0
 35 20  1  0
 22  6  1  0
 16 23  1  0
M  END
>  <ID>  (644) 


>  <MOLENAME>  (644) 
ERYTHROMYCIN ESTOLATE

>  <therap>  (644) 
antibacterial

>  <ref>  (644) 
Am. J. Hosp. Pharm. (1980), 37(9), 1199-205; Antibiot. Annu. (1960), 893-8; Antibiot. Annu. (1959), 364-74

>  <cas#>  (644) 
134-36-1, 114-07-8 [erythromycin]

>  <source>  (644) 
Streptomyces erythreus

>  <status>  (644) 
USP, INN, BAN, JAN

>  <tradename>  (644) 
ILOSONE

>  <SMILES>  (644) 
CCC(=O)O[C@H]1[C@H](O[C@@H]2[C@@H](C)[C@H](O[C@H]3C[C@@](C)(OC)[C@@H](O)[C@H](C)O3)[C@@H](C)C(=O)O[C@H](CC)[C@@](C)(O)[C@H](O)[C@@H](C)C(=O)[C@H](C)C[C@@]2(C)O)O[C@H](C)C[C@@H]1N(C)C

>  <standardized_failed>  (644) 
False

$$$$

     RDKit          2D

 59 62  0  0  0  0  0  0  0  0999 V2000
    5.6667   -5.1292    0.0000 C   0  0  0  0  0  0  0  0  0  0  0  0
    7.1042   -5.9542    0.0000 C   0  0  0  0  0  0  0  0  0  0  0  0
    6.3917   -6.3667    0.0000 C   0  0  0  0  0  0  0  0  0  0  0  0
    5.6667   -5.9542    0.0000 C   0  0  0  0  0  0  0  0  0  0  0  0
    6.3917   -4.7167    0.0000 O   0  0  0  0  0  0  0  0  0  0  0  0
    4.3792   -4.1292    0.0000 C   0  0  0  0  0  0  0  0  0  0  0  0
    4.9542   -4.7167    0.0000 O   0  0  0  0  0  0  0  0  0  0  0  0
    9.2500   -8.0167    0.0000 C   0  0  0  0  0  0  0  0  0  0  0  0
    8.5375   -6.7792    0.0000 C   0  0  0  0  0  0  0  0  0  0  0  0
    3.5792   -4.3417    0.0000 C   0  0  0  0  0  0  0  0  0  0  0  0
    8.5292   -7.6042    0.0000 C   0  0  0  0  0  0  0  0  0  0  0  0
    2.0000   -4.7667    0.0000 C   0  0  0  0  0  0  0  0  0  0  0  0
    9.2500   -6.3667    0.0000 O   0  0  0  0  0  0  0  0  0  0  0  0
    7.1042   -5.1292    0.0000 C   0  0  0  0  0  0  0  0  0  0  0  0
    9.9542   -7.6042    0.0000 C   0  0  0  0  0  0  0  0  0  0  0  0
    2.5792   -5.3500    0.0000 C   0  0  0  0  0  0  0  0  0  0  0  0
    3.2250    0.7833    0.0000 O   0  0  0  0  0  0  0  0  0  0  0  0
    3.3667   -5.1417    0.0000 C   0  0  0  0  0  0  0  0  0  0  0  0
    7.8167   -6.3667    0.0000 O   0  0  0  0  0  0  0  0  0  0  0  0
    9.9542   -6.7792    0.0000 C   0  0  0  0  0  0  0  0  0  0  0  0
    4.5917   -3.3375    0.0000 C   0  0  0  0  0  0  0  0  0  0  0  0
    2.8042    1.4958    0.0000 C   0  0  0  0  0  0  0  0  0  0  0  0
    1.9792    1.4958    0.0000 C   0  0  0  0  0  0  0  0  0  0  0  0
    1.2042   -4.9792    0.0000 O   0  0  0  0  0  0  0  0  0  0  0  0
    2.8042    0.0583    0.0000 C   0  0  0  0  0  0  0  0  0  0  0  0
    4.0125   -2.7542    0.0000 C   0  0  0  0  0  0  0  0  0  0  0  0
    3.6417   -1.3750    0.0000 C   0  0  0  0  0  0  0  0  0  0  0  0
    3.2292   -0.6542    0.0000 O   0  0  0  0  0  0  0  0  0  0  0  0
    6.3917   -7.1917    0.0000 N   0  0  0  0  0  0  0  0  0  0  0  0
    4.2250   -1.9542    0.0000 C   0  0  0  0  0  0  0  0  0  0  0  0
    1.5625    0.7833    0.0000 C   0  0  0  0  0  0  0  0  0  0  0  0
    1.5625    2.2083    0.0000 N   0  0  0  0  0  0  0  0  0  0  0  0
    2.2125   -3.9667    0.0000 O   0  0  0  0  0  0  0  0  0  0  0  0
    2.8500   -1.5875    0.0000 C   0  0  0  0  0  0  0  0  0  0  0  0
    2.6375   -2.3792    0.0000 C   0  0  0  0  0  0  0  0  0  0  0  0
    1.8417   -2.5917    0.0000 C   0  0  0  0  0  0  0  0  0  0  0  0
    4.9542   -6.3667    0.0000 O   0  0  0  0  0  0  0  0  0  0  0  0
    1.9792    0.0583    0.0000 C   0  0  0  0  0  0  0  0  0  0  0  0
    6.7667   -3.4917    0.0000 O   0  0  0  0  0  0  0  0  0  0  0  0
    1.6292   -3.3917    0.0000 C   0  0  0  0  0  0  0  0  0  0  0  0
    9.6292   -8.6542    0.0000 O   0  0  0  0  0  0  0  0  0  0  0  0
    3.0000   -3.7625    0.0000 O   0  0  0  0  0  0  0  0  0  0  0  0
   10.6667   -8.0167    0.0000 O   0  0  0  0  0  0  0  0  0  0  0  0
    3.9542   -5.7167    0.0000 O   0  0  0  0  0  0  0  0  0  0  0  0
    5.9667   -3.7042    0.0000 C   0  0  0  0  0  0  0  0  0  0  0  0
    0.6167   -4.4000    0.0000 C   0  0  0  0  0  0  0  0  0  0  0  0
    8.6042   -8.5250    0.0000 C   0  0  0  0  0  0  0  0  0  0  0  0
    5.3875   -3.1250    0.0000 C   0  0  0  0  0  0  0  0  0  0  0  0
    7.8167   -4.7167    0.0000 C   0  0  0  0  0  0  0  0  0  0  0  0
   10.6750   -6.3750    0.0000 C   0  0  0  0  0  0  0  0  0  0  0  0
    3.2167    2.2125    0.0000 C   0  0  0  0  0  0  0  0  0  0  0  0
    5.6750   -7.6042    0.0000 C   0  0  0  0  0  0  0  0  0  0  0  0
    7.1042   -7.6042    0.0000 C   0  0  0  0  0  0  0  0  0  0  0  0
    0.7375    2.2083    0.0000 C   0  0  0  0  0  0  0  0  0  0  0  0
    1.9667    2.9250    0.0000 C   0  0  0  0  0  0  0  0  0  0  0  0
    5.0167   -1.7417    0.0000 C   0  0  0  0  0  0  0  0  0  0  0  0
    0.8292   -3.6042    0.0000 C   0  0  0  0  0  0  0  0  0  0  0  0
    3.2125   -2.9625    0.0000 C   0  0  0  0  0  0  0  0  0  0  0  0
   -0.1750   -4.6125    0.0000 C   0  0  0  0  0  0  0  0  0  0  0  0
  2 14  1  0
  3  4  1  0
  4  1  1  0
  5  1  1  0
  6  7  1  6
  1  7  1  6
  8 11  1  0
  9 19  1  6
 10  6  1  0
 11  9  1  0
 12 16  1  0
 13  9  1  0
 14  5  1  0
 15 20  1  0
 16 18  1  0
 17 25  1  0
 18 10  1  0
  2 19  1  1
 20 13  1  0
 21  6  1  0
 22 17  1  0
 23 31  1  0
 24 12  1  0
 25 28  1  1
 26 21  1  0
 27 30  1  0
 27 28  1  6
  3 29  1  6
 30 26  1  0
 31 38  1  0
 23 32  1  6
 33 12  2  0
 34 27  1  0
 35 34  2  0
 36 35  1  0
  4 37  1  1
 38 25  1  0
 39 45  2  0
 40 36  2  0
  8 41  1  0
 10 42  1  6
 15 43  1  1
 18 44  1  6
 45 48  1  0
 46 24  1  0
  8 47  1  1
 21 48  1  6
 14 49  1  6
 20 50  1  1
 22 51  1  1
 52 29  1  0
 53 29  1  0
 54 32  1  0
 55 32  1  0
 30 56  1  6
 57 46  1  0
 58 42  1  0
 46 59  1  1
  3  2  1  0
  8 15  1  0
 57 40  1  0
 23 22  1  0
M  END
>  <ID>  (645) 


>  <MOLENAME>  (645) 
SPIRAMYCIN

>  <therap>  (645) 
antibacterial

>  <ref>  (645) 
J Am Chem Soc 91: 3401 (1969)

>  <cas#>  (645) 
8025-81-8

>  <source>  (645) 
Streptomyces ambofaciens

>  <status>  (645) 
USAN, INN, BAN

>  <tradename>  (645) 
ROVAMYCIN

>  <SMILES>  (645) 
CO[C@@H]1[C@@H](O[C@@H]2O[C@H](C)[C@@H](O[C@H]3C[C@@](C)(O)[C@H](O)[C@H](C)O3)[C@H](N(C)C)[C@H]2O)[C@@H](CC=O)C[C@@H](C)[C@@H](O[C@H]2CC[C@H](N(C)C)[C@@H](C)O2)/C=C/C=C/C[C@H](C)OC(=O)C[C@H]1O

>  <standardized_failed>  (645) 
False

$$$$

     RDKit          2D

 28 32  0  0  0  0  0  0  0  0999 V2000
    3.0917   -2.2667    0.0000 C   0  0  0  0  0  0  0  0  0  0  0  0
    3.0917   -3.0167    0.0000 C   0  0  0  0  0  0  0  0  0  0  0  0
    2.4417   -3.3917    0.0000 C   0  0  0  0  0  0  0  0  0  0  0  0
    1.7917   -3.0167    0.0000 C   0  0  0  0  0  0  0  0  0  0  0  0
    1.1500   -3.3917    0.0000 C   0  0  0  0  0  0  0  0  0  0  0  0
   -1.5583   -4.5250    0.0000 C   0  0  0  0  0  0  0  0  0  0  0  0
    1.1500   -4.1417    0.0000 C   0  0  0  0  0  0  0  0  0  0  0  0
    2.4375   -1.9000    0.0000 C   0  0  0  0  0  0  0  0  0  0  0  0
    1.7917   -2.2667    0.0000 C   0  0  0  0  0  0  0  0  0  0  0  0
    2.4417   -4.1417    0.0000 C   0  0  0  0  0  0  0  0  0  0  0  0
    3.8042   -3.2500    0.0000 C   0  0  0  0  0  0  0  0  0  0  0  0
   -0.8000   -4.5250    0.0000 O   0  0  0  0  0  0  0  0  0  0  0  0
    0.5000   -3.0167    0.0000 C   0  0  0  0  0  0  0  0  0  0  0  0
    3.8042   -2.0417    0.0000 C   0  0  0  0  0  0  0  0  0  0  0  0
    0.5000   -4.5167    0.0000 C   0  0  0  0  0  0  0  0  0  0  0  0
    1.7917   -4.5167    0.0000 C   0  0  0  0  0  0  0  0  0  0  0  0
   -0.1500   -4.1417    0.0000 C   0  0  0  0  0  0  0  0  0  0  0  0
   -1.9375   -3.8667    0.0000 O   0  0  0  0  0  0  0  0  0  0  0  0
   -1.9375   -5.1750    0.0000 C   0  0  0  0  0  0  0  0  0  0  0  0
    4.2417   -2.6375    0.0000 C   0  0  0  0  0  0  0  0  0  0  0  0
   -0.1500   -3.3917    0.0000 C   0  0  0  0  0  0  0  0  0  0  0  0
    3.1042   -1.5167    0.0000 C   0  0  0  0  0  0  0  0  0  0  0  0
    3.9667   -1.3125    0.0000 O   0  0  0  0  0  0  0  0  0  0  0  0
   -2.6958   -5.1625    0.0000 C   0  0  0  0  0  0  0  0  0  0  0  0
   -1.5708   -5.8250    0.0000 C   0  0  0  0  0  0  0  0  0  0  0  0
   -1.9500   -6.4750    0.0000 C   0  0  0  0  0  0  0  0  0  0  0  0
   -3.0792   -5.8125    0.0000 C   0  0  0  0  0  0  0  0  0  0  0  0
   -2.7083   -6.4708    0.0000 C   0  0  0  0  0  0  0  0  0  0  0  0
  2  1  1  0
  3  2  1  0
  4  3  1  0
  5  4  1  0
  6 12  1  0
  7  5  2  0
  8  1  1  0
  9  8  1  0
 10  3  1  0
 11  2  1  0
 12 17  1  0
 13  5  1  0
 14  1  1  0
 15  7  1  0
 16 10  1  0
 17 21  1  0
 18  6  2  0
 19  6  1  0
 20 14  1  0
 21 13  2  0
  1 22  1  1
 14 23  1  1
 24 19  2  0
 25 19  1  0
 26 25  2  0
 27 24  1  0
 28 26  1  0
 11 20  1  0
  9  4  1  0
  7 16  1  0
 17 15  2  0
 28 27  2  0
M  END
>  <ID>  (646) 


>  <MOLENAME>  (646) 
ESTRADIOL BENZOATE

>  <therap>  (646) 
estrogen

>  <ref>  (646) 
Helv. Chim. Acta (1937), 20, 263-71; Nature (1938), 142, 292-3; Lancet (1937), I, 320-2

>  <cas#>  (646) 
50-50-0

>  <source>  (646) 
semisynthetic; NSC-9566

>  <status>  (646) 
USP-XX, INN, BAN, JAN

>  <tradename>  (646) 
AGOFOLLIN

>  <SMILES>  (646) 
C[C@]12CCC3c4c(cc(OC(=O)c5ccccc5)cc4)CCC3C1CC[C@@H]2O

>  <standardized_failed>  (646) 
False

$$$$

     RDKit          2D

 21 21  0  0  0  0  0  0  0  0999 V2000
    1.2000   -1.8125    0.0000 C   0  0  0  0  0  0  0  0  0  0  0  0
    1.9125   -1.3917    0.0000 C   0  0  0  0  0  0  0  0  0  0  0  0
    1.1917   -2.6375    0.0000 C   0  0  0  0  0  0  0  0  0  0  0  0
    0.4875   -1.3917    0.0000 C   0  0  0  0  0  0  0  0  0  0  0  0
    2.6250   -1.8000    0.0000 C   0  0  0  0  0  0  0  0  0  0  0  0
    4.7625   -1.3792    0.0000 C   0  0  0  0  0  0  0  0  0  0  0  0
    3.3375   -1.3875    0.0000 C   0  0  0  0  0  0  0  0  0  0  0  0
    6.1875   -1.3792    0.0000 C   0  0  0  0  0  0  0  0  0  0  0  0
    4.0500   -1.7917    0.0000 C   0  0  0  0  0  0  0  0  0  0  0  0
    5.4750   -1.7917    0.0000 C   0  0  0  0  0  0  0  0  0  0  0  0
    6.9000   -1.7875    0.0000 C   0  0  0  0  0  0  0  0  0  0  0  0
    0.4792   -3.0417    0.0000 C   0  0  0  0  0  0  0  0  0  0  0  0
   -0.2250   -1.8042    0.0000 C   0  0  0  0  0  0  0  0  0  0  0  0
    8.3250   -1.7792    0.0000 O   0  0  0  0  0  0  0  0  0  0  0  0
    1.9042   -3.0542    0.0000 C   0  0  0  0  0  0  0  0  0  0  0  0
    1.0667   -0.8042    0.0000 C   0  0  0  0  0  0  0  0  0  0  0  0
   -0.1000   -0.8042    0.0000 C   0  0  0  0  0  0  0  0  0  0  0  0
   -0.2333   -2.6292    0.0000 C   0  0  0  0  0  0  0  0  0  0  0  0
    7.6125   -1.3750    0.0000 C   0  0  0  0  0  0  0  0  0  0  0  0
    3.3292   -0.5625    0.0000 C   0  0  0  0  0  0  0  0  0  0  0  0
    6.1792   -0.5542    0.0000 C   0  0  0  0  0  0  0  0  0  0  0  0
  2  1  1  0
  3  1  2  0
  4  1  1  0
  5  2  2  0
  6  9  1  0
  7  5  1  0
  8 10  1  0
  9  7  2  0
 10  6  2  0
 11  8  2  0
 12  3  1  0
 13  4  1  0
 14 19  1  0
 15  3  1  0
 16  4  1  0
 17  4  1  0
 18 13  1  0
 19 11  1  0
 20  7  1  0
 21  8  1  0
 18 12  1  0
M  END
>  <ID>  (647) 


>  <MOLENAME>  (647) 
RETINOL

>  <therap>  (647) 
vitamin A

>  <ref>  (647) 
Dev Pharmacol Ther 7 Suppl 1:213 (1984); Biochem J 348:481 (2000); Clin Exper Dermatol 26:648 (2001)

>  <cas#>  (647) 
68-26-8

>  <source>  (647) 
fish & liver oils, eggs, milk

>  <status>  (647) 
USP, INN, BAN

>  <tradename>  (647) 
nan

>  <SMILES>  (647) 
CC1=C(/C=C/C(C)=C/C=C/C(C)=C/CO)C(C)(C)CCC1

>  <standardized_failed>  (647) 
False

$$$$

     RDKit          2D

 22 22  0  0  0  0  0  0  0  0999 V2000
    2.8750   -3.6042    0.0000 C   0  0  0  0  0  0  0  0  0  0  0  0
    3.5875   -3.1917    0.0000 C   0  0  0  0  0  0  0  0  0  0  0  0
    2.8750   -4.4292    0.0000 C   0  0  0  0  0  0  0  0  0  0  0  0
    2.1625   -3.1917    0.0000 C   0  0  0  0  0  0  0  0  0  0  0  0
    4.3000   -3.6042    0.0000 C   0  0  0  0  0  0  0  0  0  0  0  0
    8.5750   -3.5792    0.0000 C   0  0  0  0  0  0  0  0  0  0  0  0
    8.5750   -4.5917    0.0000 C   0  0  0  0  0  0  0  0  0  0  0  0
    6.4375   -3.1792    0.0000 C   0  0  0  0  0  0  0  0  0  0  0  0
    7.8625   -3.1792    0.0000 C   0  0  0  0  0  0  0  0  0  0  0  0
    5.0125   -3.1917    0.0000 C   0  0  0  0  0  0  0  0  0  0  0  0
    7.1500   -3.5917    0.0000 C   0  0  0  0  0  0  0  0  0  0  0  0
    5.7250   -3.5917    0.0000 C   0  0  0  0  0  0  0  0  0  0  0  0
    7.7625   -5.0542    0.0000 O   0  0  0  0  0  0  0  0  0  0  0  0
    9.3250   -4.9917    0.0000 O   0  0  0  0  0  0  0  0  0  0  0  0
    2.1625   -4.8417    0.0000 C   0  0  0  0  0  0  0  0  0  0  0  0
    1.4542   -3.6042    0.0000 C   0  0  0  0  0  0  0  0  0  0  0  0
    3.5917   -4.8417    0.0000 C   0  0  0  0  0  0  0  0  0  0  0  0
    2.8750   -2.7667    0.0000 C   0  0  0  0  0  0  0  0  0  0  0  0
    1.4417   -2.7792    0.0000 C   0  0  0  0  0  0  0  0  0  0  0  0
    1.4542   -4.4292    0.0000 C   0  0  0  0  0  0  0  0  0  0  0  0
    7.8542   -2.3542    0.0000 C   0  0  0  0  0  0  0  0  0  0  0  0
    5.0042   -2.3667    0.0000 C   0  0  0  0  0  0  0  0  0  0  0  0
  2  1  1  0
  3  1  2  0
  4  1  1  0
  5  2  2  0
  6  9  2  0
  7  6  1  0
  8 12  1  0
  9 11  1  0
 10  5  1  0
 11  8  2  0
 12 10  2  0
 13  7  2  0
 14  7  1  0
 15  3  1  0
 16  4  1  0
 17  3  1  0
 18  4  1  0
 19  4  1  0
 20 16  1  0
 21  9  1  0
 22 10  1  0
 15 20  1  0
M  END
>  <ID>  (648) 


>  <MOLENAME>  (648) 
ISOTRETINON

>  <therap>  (648) 
antiacne, antineoplastic

>  <ref>  (648) 
Science 195: 487 (9177); N Eng J Med 300: 329 (1979)

>  <cas#>  (648) 
4759-48-2

>  <source>  (648) 
semisynthetic; Ro-4-3780

>  <status>  (648) 
USP, INN, BAN

>  <tradename>  (648) 
ACCUTANE

>  <SMILES>  (648) 
CC1=C(/C=C/C(C)=C/C=C/C(C)=C\C(=O)O)C(C)(C)CCC1

>  <standardized_failed>  (648) 
False

$$$$

     RDKit          2D

  8  6  0  0  0  0  0  0  0  0999 V2000
    5.5417   -5.3917    0.0000 S   0  0  0  0  0  0  0  0  0  0  0  0
    5.8542   -4.6167    0.0000 O   0  0  0  0  0  0  0  0  0  0  0  0
    4.8292   -4.9792    0.0000 C   0  0  0  0  0  0  0  0  0  0  0  0
    6.2542   -5.8042    0.0000 O   0  0  0  0  0  0  0  0  0  0  0  0
    5.1750   -6.1500    0.0000 O   0  0  0  0  0  0  0  0  0  0  0  0
    4.1125   -3.7417    0.0000 S   0  0  0  0  0  0  0  0  0  0  0  0
    7.7417   -5.0167    0.0000 Na  0  0  0  0  0 15  0  0  0  0  0  0
    4.8292   -4.1542    0.0000 C   0  0  0  0  0  0  0  0  0  0  0  0
  2  1  1  0
  3  1  1  0
  4  1  2  0
  5  1  2  0
  6  8  1  0
  8  3  1  0
M  CHG  2   2  -1   7   1
M  END
>  <ID>  (649) 


>  <MOLENAME>  (649) 
MESNA

>  <therap>  (649) 
mucolytic

>  <ref>  (649) 
Curr. Opin. Oncol. (1997), 9(6), 569-78; Gynecol. Oncol. (1993), 51(1), 104-8; Semin. Oncol. (1992), 19(6 Suppl 12), 65-71

>  <cas#>  (649) 
19767-45-4, 3375-50-6 [2-mercaptoethanesulfonic, acid]

>  <source>  (649) 
synthetic

>  <status>  (649) 
USAN, INN, BAN

>  <tradename>  (649) 
nan

>  <SMILES>  (649) 
O=S(=O)(O)CCS

>  <standardized_failed>  (649) 
False

$$$$

     RDKit          2D

 29 31  0  0  0  0  0  0  0  0999 V2000
    2.8917   -1.0625    0.0000 N   0  0  0  0  0  0  0  0  0  0  0  0
    2.5167   -1.7042    0.0000 C   0  0  0  0  0  0  0  0  0  0  0  0
    2.5167   -0.4125    0.0000 C   0  0  0  0  0  0  0  0  0  0  0  0
    8.1417   -2.3542    0.0000 C   0  0  0  0  0  0  0  0  0  0  0  0
    7.3917   -2.3542    0.0000 N   0  0  0  0  0  0  0  0  0  0  0  0
    1.3917   -1.0625    0.0000 C   0  0  0  0  0  0  0  0  0  0  0  0
    1.7667   -1.7042    0.0000 C   0  0  0  0  0  0  0  0  0  0  0  0
    1.7667   -0.4125    0.0000 C   0  0  0  0  0  0  0  0  0  0  0  0
    5.8917   -2.3542    0.0000 N   0  0  0  0  0  0  0  0  0  0  0  0
    8.5167   -3.0000    0.0000 N   0  0  0  0  0  0  0  0  0  0  0  0
    8.5167   -1.7042    0.0000 N   0  0  0  0  0  0  0  0  0  0  0  0
    2.8917   -2.3625    0.0000 O   0  0  0  0  0  0  0  0  0  0  0  0
    2.8917    0.2458    0.0000 O   0  0  0  0  0  0  0  0  0  0  0  0
    7.0167   -1.7042    0.0000 C   0  0  0  0  0  0  0  0  0  0  0  0
    7.0167   -3.0000    0.0000 C   0  0  0  0  0  0  0  0  0  0  0  0
    6.2667   -1.7042    0.0000 C   0  0  0  0  0  0  0  0  0  0  0  0
    6.2667   -3.0000    0.0000 C   0  0  0  0  0  0  0  0  0  0  0  0
    3.6417   -1.0625    0.0000 C   0  0  0  0  0  0  0  0  0  0  0  0
    4.9250   -3.2417    0.0000 Cl  0  0  0  0  0  0  0  0  0  0  0  0
    9.6417   -2.3542    0.0000 C   0  0  0  0  0  0  0  0  0  0  0  0
    5.1417   -2.3542    0.0000 C   0  0  0  0  0  0  0  0  0  0  0  0
    9.2667   -1.7042    0.0000 C   0  0  0  0  0  0  0  0  0  0  0  0
    9.2667   -3.0000    0.0000 C   0  0  0  0  0  0  0  0  0  0  0  0
    1.0167   -1.7125    0.0000 C   0  0  0  0  0  0  0  0  0  0  0  0
    0.8917   -0.5042    0.0000 C   0  0  0  0  0  0  0  0  0  0  0  0
    4.0167   -1.7042    0.0000 C   0  0  0  0  0  0  0  0  0  0  0  0
    4.7667   -1.7042    0.0000 C   0  0  0  0  0  0  0  0  0  0  0  0
    0.2042   -0.8125    0.0000 C   0  0  0  0  0  0  0  0  0  0  0  0
    0.2792   -1.5542    0.0000 C   0  0  0  0  0  0  0  0  0  0  0  0
  2  1  1  0
  3  1  1  0
  4  5  1  0
  5 15  1  0
  6  8  1  0
  7  2  1  0
  8  3  1  0
  9 21  1  0
 10  4  2  0
 11  4  1  0
 12  2  2  0
 13  3  2  0
 14 16  1  0
 15 17  1  0
 16  9  1  0
 17  9  1  0
 18  1  1  0
 20 22  1  0
 21 27  1  0
 22 11  2  0
 23 10  1  0
 24  6  1  0
 25  6  1  0
 26 18  1  0
 27 26  1  0
 28 25  1  0
 29 24  1  0
  7  6  1  0
 29 28  1  0
 14  5  1  0
 20 23  2  0
M  END
>  <ID>  (650) 


>  <MOLENAME>  (650) 
BUSPIRONE HYDROCHLORIDE

>  <therap>  (650) 
5HT1a receptor agonist, anxiolytic

>  <ref>  (650) 
J Clin Psychiatry 43:1 (1982); Drugs 32:114 (1986); Pharmacotherapy 8:100 (1988)

>  <cas#>  (650) 
33386-08-2, 36505-84-7 [buspirone]

>  <source>  (650) 
synthetic

>  <status>  (650) 
USP, INN, BAN

>  <tradename>  (650) 
BUSPAR

>  <SMILES>  (650) 
O=C1CC2(CCCC2)CC(=O)N1CCCCN1CCN(c2ncccn2)CC1

>  <standardized_failed>  (650) 
False

$$$$

     RDKit          2D

 32 33  0  0  0  0  0  0  0  0999 V2000
    4.3417   -6.7167    0.0000 C   0  0  0  0  0  0  0  0  0  0  0  0
    4.8250   -7.3917    0.0000 C   0  0  0  0  0  0  0  0  0  0  0  0
    4.5917   -5.9292    0.0000 C   0  0  0  0  0  0  0  0  0  0  0  0
    4.3417   -8.0542    0.0000 O   0  0  0  0  0  0  0  0  0  0  0  0
    5.4000   -5.7542    0.0000 C   0  0  0  0  0  0  0  0  0  0  0  0
    3.5542   -6.9667    0.0000 C   0  0  0  0  0  0  0  0  0  0  0  0
    3.5542   -7.7917    0.0000 C   0  0  0  0  0  0  0  0  0  0  0  0
    7.0125   -5.4042    0.0000 C   0  0  0  0  0  0  0  0  0  0  0  0
    6.7542   -6.1917    0.0000 C   0  0  0  0  0  0  0  0  0  0  0  0
    6.4542   -4.7917    0.0000 C   0  0  0  0  0  0  0  0  0  0  0  0
    5.9542   -6.3667    0.0000 C   0  0  0  0  0  0  0  0  0  0  0  0
    5.6542   -4.9667    0.0000 C   0  0  0  0  0  0  0  0  0  0  0  0
    4.0417   -5.3167    0.0000 O   0  0  0  0  0  0  0  0  0  0  0  0
    7.3042   -6.8042    0.0000 I   0  0  0  0  0  0  0  0  0  0  0  0
    6.7042   -4.0042    0.0000 I   0  0  0  0  0  0  0  0  0  0  0  0
    7.8292   -5.2292    0.0000 O   0  0  0  0  0  0  0  0  0  0  0  0
    5.6500   -7.3917    0.0000 C   0  0  0  0  0  0  0  0  0  0  0  0
    9.1542   -3.4917    0.0000 N   0  0  0  0  0  0  0  0  0  0  0  0
   10.1042   -4.3042    0.0000 Cl  0  0  0  0  0  0  0  0  0  0  0  0
    2.8417   -6.5542    0.0000 C   0  0  0  0  0  0  0  0  0  0  0  0
    8.0875   -4.4417    0.0000 C   0  0  0  0  0  0  0  0  0  0  0  0
    2.8417   -8.2042    0.0000 C   0  0  0  0  0  0  0  0  0  0  0  0
    8.8917   -4.2792    0.0000 C   0  0  0  0  0  0  0  0  0  0  0  0
    8.6042   -2.8792    0.0000 C   0  0  0  0  0  0  0  0  0  0  0  0
    9.9625   -3.3167    0.0000 C   0  0  0  0  0  0  0  0  0  0  0  0
    6.3625   -7.8042    0.0000 C   0  0  0  0  0  0  0  0  0  0  0  0
    7.0750   -7.3917    0.0000 C   0  0  0  0  0  0  0  0  0  0  0  0
    7.7917   -3.0417    0.0000 C   0  0  0  0  0  0  0  0  0  0  0  0
    2.1292   -6.9667    0.0000 C   0  0  0  0  0  0  0  0  0  0  0  0
   10.2167   -2.5292    0.0000 C   0  0  0  0  0  0  0  0  0  0  0  0
    2.1292   -7.7917    0.0000 C   0  0  0  0  0  0  0  0  0  0  0  0
    7.7875   -7.7917    0.0000 C   0  0  0  0  0  0  0  0  0  0  0  0
  2  1  2  0
  3  1  1  0
  4  2  1  0
  5  3  1  0
  6  1  1  0
  7  6  2  0
  8 10  2  0
  9 11  2  0
 10 12  1  0
 11  5  1  0
 12  5  2  0
 13  3  2  0
 14  9  1  0
 15 10  1  0
 16  8  1  0
 17  2  1  0
 18 23  1  0
 20  6  1  0
 21 16  1  0
 22  7  1  0
 23 21  1  0
 24 18  1  0
 25 18  1  0
 26 17  1  0
 27 26  1  0
 28 24  1  0
 29 20  2  0
 30 25  1  0
 31 29  1  0
 32 27  1  0
  4  7  1  0
 31 22  2  0
  8  9  1  0
M  END
>  <ID>  (651) 


>  <MOLENAME>  (651) 
AMIODARONE HYDROCHLORIDE

>  <therap>  (651) 
adrenergic agonist, coronary vasodilator, Ca channel blocker

>  <ref>  (651) 
Adv Drug Res 16: 309 (1987)

>  <cas#>  (651) 
1951-25-3

>  <source>  (651) 
synthetic

>  <status>  (651) 
USAN, INN, BAN, JAN

>  <tradename>  (651) 
CORDARONE

>  <SMILES>  (651) 
CCCCc1c(C(=O)c2cc(I)c(OCCN(CC)CC)c(I)c2)c2c(cccc2)o1

>  <standardized_failed>  (651) 
False

$$$$

     RDKit          2D

 10  6  0  0  0  0  0  0  0  0999 V2000
    6.4750   -3.5375    0.0000 P   0  0  0  0  0  0  0  0  0  0  0  0
    5.8917   -2.9500    0.0000 C   0  0  0  0  0  0  0  0  0  0  0  0
    5.8917   -4.1125    0.0000 O   0  0  0  0  0  0  0  0  0  0  0  0
    7.0500   -4.1167    0.0000 O   0  0  0  0  0  0  0  0  0  0  0  0
    7.0542   -2.9625    0.0000 O   0  0  0  0  0  0  0  0  0  0  0  0
    5.0917   -3.1625    0.0000 O   0  0  0  0  0  0  0  0  0  0  0  0
    6.1042   -2.1667    0.0000 O   0  0  0  0  0  0  0  0  0  0  0  0
    4.0500   -3.1167    0.0000 Na  0  0  0  0  0 15  0  0  0  0  0  0
    7.9167   -4.0542    0.0000 Na  0  0  0  0  0 15  0  0  0  0  0  0
    4.9250   -4.8417    0.0000 Na  0  0  0  0  0 15  0  0  0  0  0  0
  2  1  1  0
  3  1  1  0
  4  1  1  0
  5  1  2  0
  6  2  1  0
  7  2  2  0
M  CHG  6   3  -1   4  -1   6  -1   8   1   9   1  10   1
M  END
>  <ID>  (652) 


>  <MOLENAME>  (652) 
FOSCARNET SODIUM

>  <therap>  (652) 
antiviral

>  <ref>  (652) 
Science (1978), 4358, 819-21; Virology (1984), 135(1), 293-6; Biochim. Biophys. Acta (1981), 652(1), 90-8

>  <cas#>  (652) 
63585-09-1

>  <source>  (652) 
synthetic

>  <status>  (652) 
USAN, INN, BAN

>  <tradename>  (652) 
FOSCAVIR

>  <SMILES>  (652) 
O=C(O)P(=O)(O)O

>  <standardized_failed>  (652) 
False

$$$$

     RDKit          2D

 37 39  0  0  0  0  0  0  0  0999 V2000
    6.6875   -2.9625    0.0000 N   0  0  0  0  0  0  0  0  0  0  0  0
    6.1042   -2.3792    0.0000 C   0  0  0  0  0  0  0  0  0  0  0  0
    5.5250   -2.9667    0.0000 C   0  0  0  0  0  0  0  0  0  0  0  0
    6.1042   -3.5417    0.0000 C   0  0  0  0  0  0  0  0  0  0  0  0
    7.4792   -3.1750    0.0000 C   0  0  0  0  0  0  0  0  0  0  0  0
    3.0542   -3.1375    0.0000 S   0  0  0  0  0  0  0  0  0  0  0  0
    7.6875   -3.9667    0.0000 C   0  0  0  0  0  0  0  0  0  0  0  0
    4.2167   -2.2917    0.0000 C   0  0  0  0  0  0  0  0  0  0  0  0
    4.7000   -2.9667    0.0000 N   0  0  0  0  0  0  0  0  0  0  0  0
    3.3917   -2.3792    0.0000 C   0  0  0  0  0  0  0  0  0  0  0  0
    6.3125   -4.3292    0.0000 S   0  0  0  0  0  0  0  0  0  0  0  0
    8.6917   -4.9792    0.0000 N   0  0  0  0  0  0  0  0  0  0  0  0
    8.0625   -2.5917    0.0000 C   0  0  0  0  0  0  0  0  0  0  0  0
    8.4792   -4.1792    0.0000 C   0  0  0  0  0  0  0  0  0  0  0  0
    7.1042   -4.5500    0.0000 C   0  0  0  0  0  0  0  0  0  0  0  0
    9.3417   -7.3667    0.0000 C   0  0  0  0  0  0  0  0  0  0  0  0
    3.6417   -3.7167    0.0000 O   0  0  0  0  0  0  0  0  0  0  0  0
    6.1042   -1.5542    0.0000 O   0  0  0  0  0  0  0  0  0  0  0  0
    2.6417   -3.8500    0.0000 O   0  0  0  0  0  0  0  0  0  0  0  0
    2.2667   -2.8667    0.0000 O   0  0  0  0  0  0  0  0  0  0  0  0
    4.5500   -1.5417    0.0000 O   0  0  0  0  0  0  0  0  0  0  0  0
    9.1250   -6.5667    0.0000 C   0  0  0  0  0  0  0  0  0  0  0  0
    8.8542   -2.8042    0.0000 O   0  0  0  0  0  0  0  0  0  0  0  0
    2.9125   -1.7167    0.0000 C   0  0  0  0  0  0  0  0  0  0  0  0
    7.8500   -1.7917    0.0000 O   0  0  0  0  0  0  0  0  0  0  0  0
    8.7625   -7.9500    0.0000 O   0  0  0  0  0  0  0  0  0  0  0  0
    8.1125   -5.5625    0.0000 C   0  0  0  0  0  0  0  0  0  0  0  0
    9.4917   -5.1875    0.0000 C   0  0  0  0  0  0  0  0  0  0  0  0
    9.7042   -5.9792    0.0000 C   0  0  0  0  0  0  0  0  0  0  0  0
    8.3292   -6.3542    0.0000 C   0  0  0  0  0  0  0  0  0  0  0  0
   10.1417   -7.5750    0.0000 N   0  0  0  0  0  0  0  0  0  0  0  0
    2.9875   -4.5917    0.0000 Na  0  0  0  0  0 15  0  0  0  0  0  0
    3.2500   -0.9625    0.0000 C   0  0  0  0  0  0  0  0  0  0  0  0
    2.0917   -1.8000    0.0000 C   0  0  0  0  0  0  0  0  0  0  0  0
    1.6042   -1.1375    0.0000 C   0  0  0  0  0  0  0  0  0  0  0  0
    2.7667   -0.2917    0.0000 C   0  0  0  0  0  0  0  0  0  0  0  0
    1.9417   -0.3792    0.0000 C   0  0  0  0  0  0  0  0  0  0  0  0
  2  1  1  0
  3  4  1  0
  4  1  1  0
  5  1  1  0
  6 10  1  0
  7  5  2  0
  8  9  1  0
  9  3  1  0
 10  8  1  0
 11  4  1  0
 12 14  1  0
 13  5  1  0
 14  7  1  0
 15  7  1  0
 16 22  1  0
 17  6  1  0
 18  2  2  0
 19  6  2  0
 20  6  2  0
 21  8  2  0
 22 29  2  0
 23 13  1  0
 24 10  1  0
 25 13  2  0
 26 16  2  0
 27 12  1  0
 28 12  2  0
 29 28  1  0
 30 27  2  0
 31 16  1  0
 33 24  2  0
 34 24  1  0
 35 34  2  0
 36 33  1  0
 37 36  2  0
  2  3  1  0
 11 15  1  0
 30 22  1  0
 35 37  1  0
M  CHG  4  12   1  17  -1  23  -1  32   1
M  END
>  <ID>  (653) 


>  <MOLENAME>  (653) 
CEFSULODIN SODIUM

>  <therap>  (653) 
antibacterial

>  <ref>  (653) 
Antimicrob Agents Chemother 13:137 (1978); 17:165 (1980); Arzneim Forsch 30:1478 (1980)

>  <cas#>  (653) 
52152-93-9, 62587-73-9 [cefsulodin]

>  <source>  (653) 
semisynthetic

>  <status>  (653) 
USAN, INN, BAN, JAN

>  <tradename>  (653) 
CEFOMONIL

>  <SMILES>  (653) 
NC(=O)c1cc[n+](CC2=C(C(=O)O)N3C(=O)C(NC(=O)C(c4ccccc4)S(=O)(=O)[O-])C3SC2)cc1

>  <standardized_failed>  (653) 
False

$$$$

     RDKit          2D

  9  8  0  0  0  0  0  0  0  0999 V2000
    5.8292   -2.9250    0.0000 C   0  0  0  0  0  0  0  0  0  0  0  0
    5.5542   -4.1125    0.0000 O   0  0  0  0  0  0  0  0  0  0  0  0
    6.4167   -3.5042    0.0000 P   0  0  0  0  0  0  0  0  0  0  0  0
    4.6417   -3.3917    0.0000 C   0  0  0  0  0  0  0  0  0  0  0  0
    6.6292   -2.7042    0.0000 O   0  0  0  0  0  0  0  0  0  0  0  0
    7.2125   -3.2875    0.0000 O   0  0  0  0  0  0  0  0  0  0  0  0
    6.4125   -4.3292    0.0000 O   0  0  0  0  0  0  0  0  0  0  0  0
    4.2292   -4.1042    0.0000 C   0  0  0  0  0  0  0  0  0  0  0  0
    8.3542   -2.8667    0.0000 Ca  0  0  0  0  0 15  0  0  0  0  0  0
  2  1  1  0
  3  1  1  0
  4  1  1  0
  5  3  1  0
  6  3  1  0
  7  3  2  0
  8  4  1  0
  4  2  1  0
M  CHG  3   5  -1   6  -1   9   2
M  END
>  <ID>  (654) 


>  <MOLENAME>  (654) 
FOSFOMYCIN CALCIUM

>  <therap>  (654) 
antibacterial

>  <ref>  (654) 
Ann NY Acad Sci 235:364 (1974); J Antimicrob Chemother 11:467 (1983); 48:209 (2001)

>  <cas#>  (654) 
26472-47-9, 23112-90-5(acid)

>  <source>  (654) 
Streptomyces spp

>  <status>  (654) 
USAN, INN, BAN

>  <tradename>  (654) 
FOSMICIN

>  <SMILES>  (654) 
CC1OC1P(=O)(O)O

>  <standardized_failed>  (654) 
False

$$$$

     RDKit          2D

 19 18  0  0  0  0  0  0  0  0999 V2000
    4.3667   -2.4167    0.0000 O   0  0  0  0  0  0  0  0  0  0  0  0
    3.6167   -2.4167    0.0000 C   0  0  0  0  0  0  0  0  0  0  0  0
    6.6167   -1.1167    0.0000 N   0  0  0  0  0  0  0  0  0  0  0  0
    3.2417   -1.7667    0.0000 C   0  0  0  0  0  0  0  0  0  0  0  0
    4.3792   -1.1167    0.0000 C   0  0  0  0  0  0  0  0  0  0  0  0
    4.7542   -0.4750    0.0000 C   0  0  0  0  0  0  0  0  0  0  0  0
    5.4917   -1.7667    0.0000 C   0  0  0  0  0  0  0  0  0  0  0  0
    4.7417   -1.7667    0.0000 C   0  0  0  0  0  0  0  0  0  0  0  0
    5.8667   -1.1167    0.0000 C   0  0  0  0  0  0  0  0  0  0  0  0
    7.7667   -1.9917    0.0000 Cl  0  0  0  0  0  0  0  0  0  0  0  0
    5.8667   -2.4167    0.0000 O   0  0  0  0  0  0  0  0  0  0  0  0
    3.6250   -1.1167    0.0000 C   0  0  0  0  0  0  0  0  0  0  0  0
    6.9917   -0.4750    0.0000 C   0  0  0  0  0  0  0  0  0  0  0  0
    3.2417   -3.0667    0.0000 C   0  0  0  0  0  0  0  0  0  0  0  0
    2.4917   -1.7667    0.0000 C   0  0  0  0  0  0  0  0  0  0  0  0
    7.7417   -0.4750    0.0000 C   0  0  0  0  0  0  0  0  0  0  0  0
    6.6167    0.1708    0.0000 C   0  0  0  0  0  0  0  0  0  0  0  0
    2.4917   -3.0667    0.0000 C   0  0  0  0  0  0  0  0  0  0  0  0
    2.1167   -2.4167    0.0000 C   0  0  0  0  0  0  0  0  0  0  0  0
  2  1  1  0
  3  9  1  0
  4  2  2  0
  5 12  1  0
  6  5  2  0
  7  8  1  0
  8  1  1  0
  9  7  1  0
 11  7  1  0
 12  4  1  0
 13  3  1  0
 14  2  1  0
 15  4  1  0
 16 13  1  0
 17 13  1  0
 18 14  2  0
 19 18  1  0
 19 15  2  0
M  END
>  <ID>  (655) 


>  <MOLENAME>  (655) 
ALPRENOLOL

>  <therap>  (655) 
betaadrenergic blocker

>  <ref>  (655) 
Clin Ter 56:121 (9171); Acta Med Scand 1984 Suppl 680:1

>  <cas#>  (655) 
13655-52-2, 13707-88-5 [alprenolol hydrochloride]

>  <source>  (655) 
synthetic

>  <status>  (655) 
USAN, INN, BAN, JAN

>  <tradename>  (655) 
GUBERNAL

>  <SMILES>  (655) 
C=CCc1c(OCC(O)CNC(C)C)cccc1

>  <standardized_failed>  (655) 
False

$$$$

     RDKit          2D

 24 24  0  0  0  0  0  0  0  0999 V2000
    4.7625   -1.5667    0.0000 C   0  0  0  0  0  0  0  0  0  0  0  0
    4.3500   -2.2792    0.0000 C   0  0  0  0  0  0  0  0  0  0  0  0
    5.5875   -1.5667    0.0000 C   0  0  0  0  0  0  0  0  0  0  0  0
    7.2375   -4.4292    0.0000 C   0  0  0  0  0  0  0  0  0  0  0  0
    4.3500   -0.8542    0.0000 O   0  0  0  0  0  0  0  0  0  0  0  0
    5.5875   -2.9917    0.0000 C   0  0  0  0  0  0  0  0  0  0  0  0
    2.2875   -0.1417    0.0000 C   0  0  0  0  0  0  0  0  0  0  0  0
    3.1125   -0.1417    0.0000 C   0  0  0  0  0  0  0  0  0  0  0  0
    6.8250   -3.7042    0.0000 C   0  0  0  0  0  0  0  0  0  0  0  0
    6.0000   -2.2792    0.0000 C   0  0  0  0  0  0  0  0  0  0  0  0
    4.7625   -2.9917    0.0000 C   0  0  0  0  0  0  0  0  0  0  0  0
    3.5250   -0.8542    0.0000 C   0  0  0  0  0  0  0  0  0  0  0  0
    6.0000   -3.7042    0.0000 C   0  0  0  0  0  0  0  0  0  0  0  0
    1.8792   -0.8542    0.0000 C   0  0  0  0  0  0  0  0  0  0  0  0
    8.0625   -4.4292    0.0000 O   0  0  0  0  0  0  0  0  0  0  0  0
    6.8250   -5.1417    0.0000 O   0  0  0  0  0  0  0  0  0  0  0  0
    2.2875   -1.5667    0.0000 C   0  0  0  0  0  0  0  0  0  0  0  0
    5.9917   -0.8542    0.0000 I   0  0  0  0  0  0  0  0  0  0  0  0
    3.5250   -2.2792    0.0000 I   0  0  0  0  0  0  0  0  0  0  0  0
    1.8750    0.5708    0.0000 I   0  0  0  0  0  0  0  0  0  0  0  0
    7.2375   -2.9917    0.0000 N   0  0  0  0  0  0  0  0  0  0  0  0
    3.1125   -1.5667    0.0000 C   0  0  0  0  0  0  0  0  0  0  0  0
    1.0542   -0.8542    0.0000 O   0  0  0  0  0  0  0  0  0  0  0  0
    9.0542   -3.4792    0.0000 Na  0  0  0  0  0 15  0  0  0  0  0  0
  2  1  2  0
  3  1  1  0
  4  9  1  0
  5  1  1  0
  6 10  1  0
  7  8  2  0
  8 12  1  0
  9 13  1  0
 10  3  2  0
 11  2  1  0
 12  5  1  0
 13  6  1  0
 14 17  2  0
 15  4  1  0
 16  4  2  0
 17 22  1  0
 18  3  1  0
 19  2  1  0
 20  7  1  0
  9 21  1  6
 22 12  2  0
 23 14  1  0
 11  6  2  0
  7 14  1  0
M  CHG  2  15  -1  24   1
M  END
>  <ID>  (656) 


>  <MOLENAME>  (656) 
LIOTHYRONINE (L- isomer) SODIUM

>  <therap>  (656) 
thyroid hormone

>  <ref>  (656) 
Am. J. Hosp. Pharm. (1978), 35(1), 51-8; Metab., Clin. Exp. (1972), 21(11), 1073-92; Compt. rend. (1952), 234, 997-8

>  <cas#>  (656) 
55-06-1, 6893-02-3 [liothyronine]

>  <source>  (656) 
synthetic; L-isomer

>  <status>  (656) 
USP, BAN, JAN

>  <tradename>  (656) 
CYTOMEL

>  <SMILES>  (656) 
N[C@@H](Cc1cc(I)c(Oc2ccc(O)c(I)c2)c(I)c1)C(=O)O

>  <standardized_failed>  (656) 
False

$$$$

     RDKit          2D

 19 21  0  0  0  0  0  0  0  0999 V2000
    3.6042   -1.2792    0.0000 N   0  0  0  0  0  0  0  0  0  0  0  0
    3.6042   -2.1042    0.0000 C   0  0  0  0  0  0  0  0  0  0  0  0
    2.8917   -0.8667    0.0000 C   0  0  0  0  0  0  0  0  0  0  0  0
    2.1750   -1.2792    0.0000 C   0  0  0  0  0  0  0  0  0  0  0  0
    2.8917   -2.5167    0.0000 C   0  0  0  0  0  0  0  0  0  0  0  0
    2.1750   -2.1042    0.0000 C   0  0  0  0  0  0  0  0  0  0  0  0
    4.3167   -0.8667    0.0000 C   0  0  0  0  0  0  0  0  0  0  0  0
    4.3167   -0.0417    0.0000 C   0  0  0  0  0  0  0  0  0  0  0  0
    2.8917   -0.0417    0.0000 O   0  0  0  0  0  0  0  0  0  0  0  0
    4.3167   -2.5167    0.0000 O   0  0  0  0  0  0  0  0  0  0  0  0
    3.6042    0.3708    0.0000 O   0  0  0  0  0  0  0  0  0  0  0  0
    1.4625   -2.5167    0.0000 C   0  0  0  0  0  0  0  0  0  0  0  0
    2.8917   -3.3417    0.0000 C   0  0  0  0  0  0  0  0  0  0  0  0
    1.4625   -0.8667    0.0000 C   0  0  0  0  0  0  0  0  0  0  0  0
    5.0292    0.3708    0.0000 O   0  0  0  0  0  0  0  0  0  0  0  0
    0.7417   -1.2792    0.0000 C   0  0  0  0  0  0  0  0  0  0  0  0
    2.1792   -3.7542    0.0000 C   0  0  0  0  0  0  0  0  0  0  0  0
    0.7417   -2.1042    0.0000 C   0  0  0  0  0  0  0  0  0  0  0  0
    1.4542   -3.3417    0.0000 C   0  0  0  0  0  0  0  0  0  0  0  0
  2  1  1  0
  3  1  1  0
  4  3  1  0
  5  2  1  0
  6  4  2  0
  7  1  1  0
  8  7  1  0
  9  3  2  0
 10  2  2  0
 11  8  2  0
 12  6  1  0
 13  5  2  0
 14  4  1  0
 15  8  1  0
 16 14  2  0
 17 13  1  0
 18 16  1  0
 19 12  1  0
  5  6  1  0
 18 12  2  0
 17 19  2  0
M  END
>  <ID>  (657) 


>  <MOLENAME>  (657) 
ALRESTATIN

>  <therap>  (657) 
aldose reductase inhibitor

>  <ref>  (657) 
Indian J Ophthalmol 57:175 (2009)

>  <cas#>  (657) 
51411-04-2, 51876-97-2 [alrestatin sodium]

>  <source>  (657) 
synthetic; AY-22284A

>  <status>  (657) 
USAN, INN

>  <tradename>  (657) 
nan

>  <SMILES>  (657) 
O=C(O)CN1C(=O)c2c3c(cccc3ccc2)C1=O

>  <standardized_failed>  (657) 
False

$$$$

     RDKit          2D

 27 27  0  0  0  0  0  0  0  0999 V2000
    5.4542   -7.1750    0.0000 C   0  0  0  0  0  0  0  0  0  0  0  0
    5.6667   -7.9667    0.0000 C   0  0  0  0  0  0  0  0  0  0  0  0
    5.3375   -8.5125    0.0000 O   0  0  0  0  0  0  0  0  0  0  0  0
    5.4542   -6.3500    0.0000 C   0  0  0  0  0  0  0  0  0  0  0  0
    4.7417   -7.5875    0.0000 C   0  0  0  0  0  0  0  0  0  0  0  0
    6.4625   -8.1875    0.0000 O   0  0  0  0  0  0  0  0  0  0  0  0
    7.6750  -10.0000    0.0000 N   0  0  0  0  0  0  0  0  0  0  0  0
    8.7292   -8.1792    0.0000 Cl  0  0  0  0  0  0  0  0  0  0  0  0
    6.2792   -7.1750    0.0000 C   0  0  0  0  0  0  0  0  0  0  0  0
    6.6750   -8.9792    0.0000 C   0  0  0  0  0  0  0  0  0  0  0  0
    7.4667   -9.2000    0.0000 C   0  0  0  0  0  0  0  0  0  0  0  0
    4.7500   -8.4042    0.0000 C   0  0  0  0  0  0  0  0  0  0  0  0
    4.7417   -5.9375    0.0000 C   0  0  0  0  0  0  0  0  0  0  0  0
    6.1750   -5.9375    0.0000 C   0  0  0  0  0  0  0  0  0  0  0  0
    4.0292   -7.1667    0.0000 C   0  0  0  0  0  0  0  0  0  0  0  0
    7.0917  -10.5750    0.0000 C   0  0  0  0  0  0  0  0  0  0  0  0
    8.4750  -10.2125    0.0000 C   0  0  0  0  0  0  0  0  0  0  0  0
    6.6875   -6.4542    0.0000 C   0  0  0  0  0  0  0  0  0  0  0  0
    6.3000  -10.3625    0.0000 C   0  0  0  0  0  0  0  0  0  0  0  0
    9.0625   -9.6292    0.0000 C   0  0  0  0  0  0  0  0  0  0  0  0
    7.5125   -6.4500    0.0000 C   0  0  0  0  0  0  0  0  0  0  0  0
    3.3167   -7.5792    0.0000 C   0  0  0  0  0  0  0  0  0  0  0  0
    4.0375   -8.8167    0.0000 C   0  0  0  0  0  0  0  0  0  0  0  0
    6.1750   -5.1042    0.0000 C   0  0  0  0  0  0  0  0  0  0  0  0
    4.7417   -5.1042    0.0000 C   0  0  0  0  0  0  0  0  0  0  0  0
    3.3167   -8.4042    0.0000 C   0  0  0  0  0  0  0  0  0  0  0  0
    5.4542   -4.6917    0.0000 C   0  0  0  0  0  0  0  0  0  0  0  0
  2  1  1  0
  3  2  2  0
  4  1  1  0
  5  1  1  0
  6  2  1  0
  7 11  1  0
  9  1  1  0
 10  6  1  0
 11 10  1  0
 12  5  2  0
 13  4  2  0
 14  4  1  0
 15  5  1  0
 16  7  1  0
 17  7  1  0
 18  9  1  0
 19 16  1  0
 20 17  1  0
 21 18  1  0
 22 15  2  0
 23 12  1  0
 24 14  2  0
 25 13  1  0
 26 23  2  0
 27 24  1  0
 22 26  1  0
 25 27  2  0
M  END
>  <ID>  (658) 


>  <MOLENAME>  (658) 
PROADIFEN HYDROCHLORIDE

>  <therap>  (658) 
cytochrome P450 inhibitor, Ca antagonist, anesthetic (local)

>  <ref>  (658) 
Eur J Pharmacol 10:131 (1970); Carcinogenesis 8:881 (1987)

>  <cas#>  (658) 
62-68-0

>  <source>  (658) 
synthetic; SKF-525A, RP-5171

>  <status>  (658) 
USAN, INN

>  <tradename>  (658) 
nan

>  <SMILES>  (658) 
CCCC(C(=O)OCCN(CC)CC)(c1ccccc1)c1ccccc1

>  <standardized_failed>  (658) 
False

$$$$

     RDKit          2D

  7  6  0  0  0  0  0  0  0  0999 V2000
    7.1875   -5.3000    0.0000 C   0  0  0  0  0  0  0  0  0  0  0  0
    7.1875   -6.1250    0.0000 O   0  0  0  0  0  0  0  0  0  0  0  0
    7.9000   -4.8875    0.0000 N   0  0  0  0  0  0  0  0  0  0  0  0
    6.4750   -4.8917    0.0000 C   0  0  0  0  0  0  0  0  0  0  0  0
    5.7625   -5.3042    0.0000 C   0  0  0  0  0  0  0  0  0  0  0  0
    5.0500   -4.8917    0.0000 C   0  0  0  0  0  0  0  0  0  0  0  0
    5.7625   -6.1292    0.0000 C   0  0  0  0  0  0  0  0  0  0  0  0
  2  1  2  0
  3  1  1  0
  4  1  1  0
  5  4  1  0
  6  5  1  0
  7  5  1  0
M  END
>  <ID>  (659) 


>  <MOLENAME>  (659) 
ISOVALERAMIDE

>  <therap>  (659) 
anticonvulsant, antimigraine, analgesic

>  <ref>  (659) 
J. Med. Chem. (1983), 26(6), 916-22; Epilepsia (2004), 45(11), 1338-1343; Curr. Opin. Neurol. (2003), 16(2), 203-211

>  <cas#>  (659) 
541-46-8

>  <source>  (659) 
synthetic; NFS-1776

>  <status>  (659) 
USAN

>  <tradename>  (659) 
nan

>  <SMILES>  (659) 
CC(C)CC(N)=O

>  <standardized_failed>  (659) 
False

$$$$

     RDKit          2D

 12 12  0  0  0  0  0  0  0  0999 V2000
    3.8417   -4.6625    0.0000 N   0  0  0  0  0  0  0  0  0  0  0  0
    5.2625   -4.6625    0.0000 N   0  0  0  0  0  0  0  0  0  0  0  0
    4.5500   -3.4167    0.0000 N   0  0  0  0  0  0  0  0  0  0  0  0
    3.8417   -3.8375    0.0000 C   0  0  0  0  0  0  0  0  0  0  0  0
    5.2625   -3.8375    0.0000 C   0  0  0  0  0  0  0  0  0  0  0  0
    4.5500   -5.0667    0.0000 C   0  0  0  0  0  0  0  0  0  0  0  0
    3.1250   -3.4250    0.0000 O   0  0  0  0  0  0  0  0  0  0  0  0
    5.9792   -3.4250    0.0000 O   0  0  0  0  0  0  0  0  0  0  0  0
    4.5500   -5.8917    0.0000 O   0  0  0  0  0  0  0  0  0  0  0  0
    3.1250   -5.0667    0.0000 Cl  0  0  0  0  0  0  0  0  0  0  0  0
    5.9750   -5.0750    0.0000 Cl  0  0  0  0  0  0  0  0  0  0  0  0
    4.5417   -2.5917    0.0000 Cl  0  0  0  0  0  0  0  0  0  0  0  0
  2  6  1  0
  3  4  1  0
  4  1  1  0
  5  2  1  0
  6  1  1  0
  7  4  2  0
  8  5  2  0
  9  6  2  0
 10  1  1  0
 11  2  1  0
 12  3  1  0
  3  5  1  0
M  END
>  <ID>  (660) 


>  <MOLENAME>  (660) 
SYMCLOSENE

>  <therap>  (660) 
anti-infective

>  <ref>  (660) 
Toxicology. 3rd ed. Wiley , NY 1981-1982, 2768; Sax's Dangerous Properties of Industrial Materials. 11th Edition. Wiley-Interscience, Hoboken, NJ. 2004.,3530

>  <cas#>  (660) 
87-90-1

>  <source>  (660) 
synthetic; NSC-405124

>  <status>  (660) 
USAN, INN

>  <tradename>  (660) 
CLORINE

>  <SMILES>  (660) 
O=c1n(Cl)c(=O)n(Cl)c(=O)n1Cl

>  <standardized_failed>  (660) 
False

$$$$

     RDKit          2D

 19 20  0  0  0  0  0  0  0  0999 V2000
    6.8667   -7.7625    0.0000 N   0  0  0  0  0  0  0  0  0  0  0  0
    6.1542   -7.3500    0.0000 C   0  0  0  0  0  0  0  0  0  0  0  0
    6.1542   -6.5167    0.0000 N   0  0  0  0  0  0  0  0  0  0  0  0
    6.8667   -8.5917    0.0000 C   0  0  0  0  0  0  0  0  0  0  0  0
    7.5875   -7.3500    0.0000 C   0  0  0  0  0  0  0  0  0  0  0  0
    7.5875   -6.5167    0.0000 C   0  0  0  0  0  0  0  0  0  0  0  0
    6.8667   -6.1042    0.0000 C   0  0  0  0  0  0  0  0  0  0  0  0
    6.0875   -8.3375    0.0000 O   0  0  0  0  0  0  0  0  0  0  0  0
    6.8667   -9.4125    0.0000 C   0  0  0  0  0  0  0  0  0  0  0  0
    5.0292  -10.6292    0.0000 N   0  0  0  0  0  0  0  0  0  0  0  0
    6.0875   -9.6667    0.0000 C   0  0  0  0  0  0  0  0  0  0  0  0
    5.6042   -9.0042    0.0000 C   0  0  0  0  0  0  0  0  0  0  0  0
    4.2167  -10.8042    0.0000 N   0  0  0  0  0  0  0  0  0  0  0  0
    5.8292  -10.4542    0.0000 N   0  0  0  0  0  0  0  0  0  0  0  0
    5.4375   -7.7667    0.0000 O   0  0  0  0  0  0  0  0  0  0  0  0
    6.8667   -5.2792    0.0000 O   0  0  0  0  0  0  0  0  0  0  0  0
    8.3042   -6.1000    0.0000 C   0  0  0  0  0  0  0  0  0  0  0  0
    4.7792   -9.0167    0.0000 C   0  0  0  0  0  0  0  0  0  0  0  0
    4.3542   -8.3125    0.0000 O   0  0  0  0  0  0  0  0  0  0  0  0
  2  1  1  0
  3  2  1  0
  4  1  1  1
  5  1  1  0
  6  5  2  0
  7  6  1  0
  8  4  1  0
  9  4  1  0
 10 14  2  0
 11  9  1  0
 12  8  1  0
 13 10  2  0
 11 14  1  6
 15  2  2  0
 16  7  2  0
 17  6  1  0
 12 18  1  1
 19 18  1  0
  3  7  1  0
 12 11  1  0
M  CHG  2  10   1  13  -1
M  END
>  <ID>  (661) 


>  <MOLENAME>  (661) 
ZIDOVUDINE [AZT]

>  <therap>  (661) 
RT transferase inhibitor, antiviral

>  <ref>  (661) 
Am J Med 85 Suppl 2A: 186 (1988); Ann Intern Med 117:487 (1992)

>  <cas#>  (661) 
30516-87-1

>  <source>  (661) 
synthetic; AZT, BW-A509U

>  <status>  (661) 
USP, INN, BAN, JAN

>  <tradename>  (661) 
RETROVIR

>  <SMILES>  (661) 
Cc1cn([C@H]2C[C@H](N=[N+]=[N-])[C@@H](CO)O2)c(=O)[nH]c1=O

>  <standardized_failed>  (661) 
False

$$$$

     RDKit          2D

 21 20  0  0  0  0  0  0  0  0999 V2000
    6.1667   -4.2417    0.0000 C   0  0  0  0  0  0  0  0  0  0  0  0
    2.4542   -3.5292    0.0000 C   0  0  0  0  0  0  0  0  0  0  0  0
    5.3417   -4.2417    0.0000 C   0  0  0  0  0  0  0  0  0  0  0  0
    2.8667   -4.2417    0.0000 N   0  0  0  0  0  0  0  0  0  0  0  0
    6.5750   -4.9542    0.0000 O   0  0  0  0  0  0  0  0  0  0  0  0
    2.8667   -2.8167    0.0000 O   0  0  0  0  0  0  0  0  0  0  0  0
    6.5792   -3.5292    0.0000 N   0  0  0  0  0  0  0  0  0  0  0  0
    4.9292   -4.9542    0.0000 C   0  0  0  0  0  0  0  0  0  0  0  0
    4.9292   -3.5292    0.0000 C   0  0  0  0  0  0  0  0  0  0  0  0
    3.6917   -4.2417    0.0000 C   0  0  0  0  0  0  0  0  0  0  0  0
    8.6417   -2.8167    0.0000 N   0  0  0  0  0  0  0  0  0  0  0  0
    4.1042   -4.9542    0.0000 C   0  0  0  0  0  0  0  0  0  0  0  0
    4.1042   -3.5292    0.0000 C   0  0  0  0  0  0  0  0  0  0  0  0
    8.7000   -4.8042    0.0000 Cl  0  0  0  0  0  0  0  0  0  0  0  0
    7.4042   -3.5292    0.0000 C   0  0  0  0  0  0  0  0  0  0  0  0
    1.6292   -3.5375    0.0000 C   0  0  0  0  0  0  0  0  0  0  0  0
    7.8167   -2.8167    0.0000 C   0  0  0  0  0  0  0  0  0  0  0  0
    9.0542   -3.5292    0.0000 C   0  0  0  0  0  0  0  0  0  0  0  0
    9.0542   -2.1042    0.0000 C   0  0  0  0  0  0  0  0  0  0  0  0
    9.8792   -3.5292    0.0000 C   0  0  0  0  0  0  0  0  0  0  0  0
    9.8792   -2.1042    0.0000 C   0  0  0  0  0  0  0  0  0  0  0  0
  2  4  1  0
  3  1  1  0
  4 10  1  0
  5  1  2  0
  6  2  2  0
  7  1  1  0
  8  3  2  0
  9  3  1  0
 10 13  1  0
 11 17  1  0
 12  8  1  0
 13  9  2  0
 15  7  1  0
 16  2  1  0
 17 15  1  0
 18 11  1  0
 19 11  1  0
 20 18  1  0
 21 19  1  0
 12 10  2  0
M  END
>  <ID>  (662) 


>  <MOLENAME>  (662) 
ACECAINIDE HYDROCHLORIDE

>  <therap>  (662) 
antiarrhythmic

>  <ref>  (662) 
Am J Cardiol 45:1250 (1980); 47:123 (1981); Durgs 39:720 (1990)

>  <cas#>  (662) 
34118-92-8, 32795-44-1 [acecainide]

>  <source>  (662) 
synthetic; ASL-601

>  <status>  (662) 
USAN, INN

>  <tradename>  (662) 
NAPA

>  <SMILES>  (662) 
CCN(CC)CCNC(=O)c1ccc(NC(C)=O)cc1

>  <standardized_failed>  (662) 
False

$$$$

     RDKit          2D

 53 53  0  0  0  0  0  0  0  0999 V2000
    9.3250   -5.7042    0.0000 C   0  0  0  0  0  0  0  0  0  0  0  0
    7.8958   -5.7042    0.0000 N   0  0  0  0  0  0  0  0  0  0  0  0
    7.1833   -6.1167    0.0000 C   0  0  0  0  0  0  0  0  0  0  0  0
    9.3250   -4.8792    0.0000 N   0  0  0  0  0  0  0  0  0  0  0  0
    8.6125   -6.1167    0.0000 C   0  0  0  0  0  0  0  0  0  0  0  0
   10.9292   -8.6792    0.0000 S   0  0  0  0  0  0  0  0  0  0  0  0
    7.8958   -7.3500    0.0000 N   0  0  0  0  0  0  0  0  0  0  0  0
    7.8875   -8.1750    0.0000 C   0  0  0  0  0  0  0  0  0  0  0  0
    7.1792   -6.9417    0.0000 C   0  0  0  0  0  0  0  0  0  0  0  0
    7.1708   -8.5833    0.0000 N   0  0  0  0  0  0  0  0  0  0  0  0
    7.1917   -3.6417    0.0000 N   0  0  0  0  0  0  0  0  0  0  0  0
    9.3292   -3.2292    0.0000 N   0  0  0  0  0  0  0  0  0  0  0  0
   10.0417   -4.4667    0.0000 C   0  0  0  0  0  0  0  0  0  0  0  0
    8.6167   -3.6417    0.0000 C   0  0  0  0  0  0  0  0  0  0  0  0
    6.4792   -3.2292    0.0000 C   0  0  0  0  0  0  0  0  0  0  0  0
   10.0417   -3.6417    0.0000 C   0  0  0  0  0  0  0  0  0  0  0  0
    7.9042   -3.2292    0.0000 C   0  0  0  0  0  0  0  0  0  0  0  0
    6.4792   -5.7042    0.0000 C   0  0  0  0  0  0  0  0  0  0  0  0
    5.7667   -3.6417    0.0000 C   0  0  0  0  0  0  0  0  0  0  0  0
    6.4792   -4.8792    0.0000 N   0  0  0  0  0  0  0  0  0  0  0  0
    6.4625   -7.3458    0.0000 C   0  0  0  0  0  0  0  0  0  0  0  0
   10.0417   -6.1167    0.0000 C   0  0  0  0  0  0  0  0  0  0  0  0
    6.4583   -8.1667    0.0000 C   0  0  0  0  0  0  0  0  0  0  0  0
    4.3417   -3.6417    0.0000 C   0  0  0  0  0  0  0  0  0  0  0  0
    5.0542   -3.2292    0.0000 N   0  0  0  0  0  0  0  0  0  0  0  0
   11.4667   -6.1167    0.0000 C   0  0  0  0  0  0  0  0  0  0  0  0
    3.6292   -3.2292    0.0000 C   0  0  0  0  0  0  0  0  0  0  0  0
   10.7542   -5.7042    0.0000 N   0  0  0  0  0  0  0  0  0  0  0  0
    5.7667   -4.4667    0.0000 C   0  0  0  0  0  0  0  0  0  0  0  0
   11.6417   -8.2667    0.0000 O   0  0  0  0  0  0  0  0  0  0  0  0
   11.5125   -9.2667    0.0000 O   0  0  0  0  0  0  0  0  0  0  0  0
    8.6125   -6.9417    0.0000 O   0  0  0  0  0  0  0  0  0  0  0  0
    6.4792   -2.4042    0.0000 O   0  0  0  0  0  0  0  0  0  0  0  0
    8.6167   -4.4667    0.0000 O   0  0  0  0  0  0  0  0  0  0  0  0
   10.7542   -4.8792    0.0000 O   0  0  0  0  0  0  0  0  0  0  0  0
    5.7625   -6.1125    0.0000 O   0  0  0  0  0  0  0  0  0  0  0  0
   11.4667   -6.9417    0.0000 O   0  0  0  0  0  0  0  0  0  0  0  0
    4.3417   -4.4667    0.0000 O   0  0  0  0  0  0  0  0  0  0  0  0
   10.3417   -9.2667    0.0000 O   0  0  0  0  0  0  0  0  0  0  0  0
   10.2125   -8.2667    0.0000 O   0  0  0  0  0  0  0  0  0  0  0  0
    8.6000   -8.5917    0.0000 N   0  0  0  0  0  0  0  0  0  0  0  0
   12.1833   -5.7042    0.0000 N   0  0  0  0  0  0  0  0  0  0  0  0
    5.7417   -8.5750    0.0000 O   0  0  0  0  0  0  0  0  0  0  0  0
   10.7542   -3.2292    0.0000 C   0  0  0  0  0  0  0  0  0  0  0  0
    7.9042   -2.4042    0.0000 C   0  0  0  0  0  0  0  0  0  0  0  0
    2.9167   -3.6417    0.0000 C   0  0  0  0  0  0  0  0  0  0  0  0
    2.9167   -4.4667    0.0000 N   0  0  0  0  0  0  0  0  0  0  0  0
    0.0667   -3.6417    0.0000 N   0  0  0  0  0  0  0  0  0  0  0  0
   11.4667   -3.6417    0.0000 O   0  0  0  0  0  0  0  0  0  0  0  0
    8.6167   -1.9917    0.0000 O   0  0  0  0  0  0  0  0  0  0  0  0
    0.7792   -3.2292    0.0000 C   0  0  0  0  0  0  0  0  0  0  0  0
    2.2042   -3.2292    0.0000 C   0  0  0  0  0  0  0  0  0  0  0  0
    1.4917   -3.6417    0.0000 C   0  0  0  0  0  0  0  0  0  0  0  0
  2  5  1  0
  3  2  1  1
  4  1  1  0
  5  1  1  0
  7  9  1  0
  8  7  2  0
  3  9  1  0
 10  8  1  0
 11 17  1  0
 12 16  1  0
 13  4  1  0
 14 12  1  0
 15 19  1  0
 16 13  1  0
 17 14  1  0
 18  3  1  0
 19 29  1  0
 20 18  1  0
  9 21  1  6
 22  1  2  0
 23 21  1  0
 24 25  1  0
 25 19  1  0
 26 28  1  0
 27 24  1  0
 28 22  1  0
 29 20  1  0
 30  6  2  0
 31  6  2  0
 32  5  2  0
 33 15  2  0
 34 14  2  0
 35 13  2  0
 36 18  2  0
 37 26  2  0
 38 24  2  0
 39  6  1  0
 40  6  1  0
 41  8  1  0
 42 26  1  0
 23 43  1  1
 16 44  1  1
 17 45  1  1
 46 27  1  0
 46 47  1  1
 48 51  1  0
 49 44  1  0
 50 45  1  0
 51 53  1  0
 52 46  1  0
 53 52  1  0
 10 23  1  0
 11 15  1  0
M  END
>  <ID>  (663) 


>  <MOLENAME>  (663) 
VIOMYCIN SULFATE

>  <therap>  (663) 
antibacterial

>  <ref>  (663) 
Arzneim Forsch 6:61 (1956); Antibiot Chemother 7:374 (1957)

>  <cas#>  (663) 
37883-00-4

>  <source>  (663) 
synthetic; LM-192

>  <status>  (663) 
USP-XXII

>  <tradename>  (663) 
VIOCIN

>  <SMILES>  (663) 
NCCC[C@H](N)CC(=O)NC1CNC(=O)[C@H]([C@H]2C[C@H](O)NC(N)=N2)NC(=O)/C(=C/NC(N)=O)NC(=O)[C@H](CO)NC(=O)[C@H](CO)NC1=O

>  <standardized_failed>  (663) 
False

$$$$

     RDKit          2D

 16 16  0  0  0  0  0  0  0  0999 V2000
    0.3917   -2.4792    0.0000 C   0  0  0  0  0  0  0  0  0  0  0  0
    1.0625   -1.9917    0.0000 N   0  0  0  0  0  0  0  0  0  0  0  0
   -0.4083   -2.2250    0.0000 N   0  0  0  0  0  0  0  0  0  0  0  0
    0.6542   -3.2667    0.0000 C   0  0  0  0  0  0  0  0  0  0  0  0
    1.4667   -3.2625    0.0000 N   0  0  0  0  0  0  0  0  0  0  0  0
    0.3417    0.0750    0.0000 S   0  0  0  0  0  0  0  0  0  0  0  0
    1.7250   -2.4750    0.0000 C   0  0  0  0  0  0  0  0  0  0  0  0
    1.0542   -1.1667    0.0000 C   0  0  0  0  0  0  0  0  0  0  0  0
    0.3417   -0.7542    0.0000 C   0  0  0  0  0  0  0  0  0  0  0  0
   -0.5875   -1.4167    0.0000 O   0  0  0  0  0  0  0  0  0  0  0  0
   -1.0125   -2.7875    0.0000 O   0  0  0  0  0  0  0  0  0  0  0  0
    0.3417    0.9000    0.0000 O   0  0  0  0  0  0  0  0  0  0  0  0
   -0.4833    0.0750    0.0000 O   0  0  0  0  0  0  0  0  0  0  0  0
    1.1667    0.0750    0.0000 C   0  0  0  0  0  0  0  0  0  0  0  0
    2.5042   -2.2167    0.0000 C   0  0  0  0  0  0  0  0  0  0  0  0
    1.7167    0.8458    0.0000 C   0  0  0  0  0  0  0  0  0  0  0  0
  2  1  1  0
  3  1  1  0
  4  1  2  0
  5  4  1  0
  6  9  1  0
  7  2  1  0
  8  2  1  0
  9  8  1  0
 10  3  1  0
 11  3  2  0
 12  6  2  0
 13  6  2  0
 14  6  1  0
 15  7  1  0
 16 14  1  0
  7  5  2  0
M  CHG  2   3   1  10  -1
M  END
>  <ID>  (664) 


>  <MOLENAME>  (664) 
TINIDAZOLE

>  <therap>  (664) 
antiprotozoal

>  <ref>  (664) 
Drugs 11:423 (1976); J Antimicrob Chemother 10 Suppl A:1:(1982)

>  <cas#>  (664) 
19387-91-8

>  <source>  (664) 
synthetic; CP-12574

>  <status>  (664) 
USP, INN, BAN, JAN

>  <tradename>  (664) 
TINDAMAX

>  <SMILES>  (664) 
CCS(=O)(=O)CCn1c([N+](=O)[O-])cnc1C

>  <standardized_failed>  (664) 
False

$$$$

     RDKit          2D

 22 19  0  0  0  0  0  0  0  0999 V2000
    5.1167   -3.9500    0.0000 C   0  0  0  0  0  0  0  0  0  0  0  0
    5.3542   -6.1917    0.0000 C   0  0  0  0  0  0  0  0  0  0  0  0
    9.1417   -5.0542    0.0000 C   0  0  0  0  0  0  0  0  0  0  0  0
    7.3167   -6.3750    0.0000 C   0  0  0  0  0  0  0  0  0  0  0  0
    5.8792   -5.0042    0.0000 N   0  0  0  0  0  0  0  0  0  0  0  0
    7.8542   -5.1875    0.0000 N   0  0  0  0  0  0  0  0  0  0  0  0
    4.7417   -6.6292    0.0000 O   0  0  0  0  0  0  0  0  0  0  0  0
    4.5167   -4.3792    0.0000 O   0  0  0  0  0  0  0  0  0  0  0  0
    6.6417   -6.0625    0.0000 O   0  0  0  0  0  0  0  0  0  0  0  0
    9.7542   -4.6167    0.0000 O   0  0  0  0  0  0  0  0  0  0  0  0
    5.2792   -5.4417    0.0000 C   0  0  0  0  0  0  0  0  0  0  0  0
    5.8042   -4.2542    0.0000 C   0  0  0  0  0  0  0  0  0  0  0  0
    7.9292   -5.9292    0.0000 C   0  0  0  0  0  0  0  0  0  0  0  0
    8.4667   -4.7500    0.0000 C   0  0  0  0  0  0  0  0  0  0  0  0
    7.1667   -4.8750    0.0000 C   0  0  0  0  0  0  0  0  0  0  0  0
    6.5667   -5.3125    0.0000 C   0  0  0  0  0  0  0  0  0  0  0  0
    9.2167   -5.8000    0.0000 O   0  0  0  0  0  0  0  0  0  0  0  0
    7.3917   -7.1125    0.0000 O   0  0  0  0  0  0  0  0  0  0  0  0
    5.0417   -3.2000    0.0000 O   0  0  0  0  0  0  0  0  0  0  0  0
    6.0292   -6.5000    0.0000 O   0  0  0  0  0  0  0  0  0  0  0  0
    3.6667   -5.6917    0.0000 Na  0  0  0  0  0 15  0  0  0  0  0  0
    9.1667   -7.1042    0.0000 Na  0  0  0  0  0 15  0  0  0  0  0  0
  2 11  1  0
  3 14  1  0
  4 13  1  0
  5 12  1  0
  6 15  1  0
  7  2  2  0
  8  1  2  0
  9  4  2  0
 10  3  2  0
 11  5  1  0
 12  1  1  0
 13  6  1  0
 14  6  1  0
 15 16  1  0
 16  5  1  0
 17  3  1  0
 18  4  1  0
 19  1  1  0
 20  2  1  0
M  CHG  2  21   1  22   1
M  END
>  <ID>  (665) 


>  <MOLENAME>  (665) 
EDETATE DISODIUM

>  <therap>  (665) 
chelating agent

>  <ref>  (665) 
Experientia (1968), 24(3), 296-7; Thromb. Diath. Haemorrh. (1967), 17(3-4), 516-31; J. Lab. Clin. Med. (1967), 69(2), 204-16

>  <cas#>  (665) 
60-00-4(acid)

>  <source>  (665) 
synthetic

>  <status>  (665) 
USP

>  <tradename>  (665) 
ENDRATE

>  <SMILES>  (665) 
O=C(O)CN(CCN(CC(=O)O)CC(=O)O)CC(=O)O.[Na+].[Na+]

>  <standardized_failed>  (665) 
False

$$$$

     RDKit          2D

 10 10  0  0  0  0  0  0  0  0999 V2000
    1.8125    0.7708    0.0000 N   0  0  0  0  0  0  0  0  0  0  0  0
    2.4792    0.2875    0.0000 C   0  0  0  0  0  0  0  0  0  0  0  0
    1.1417    0.2875    0.0000 C   0  0  0  0  0  0  0  0  0  0  0  0
    2.2250   -0.5000    0.0000 C   0  0  0  0  0  0  0  0  0  0  0  0
    1.4000   -0.5000    0.0000 C   0  0  0  0  0  0  0  0  0  0  0  0
    3.2667    0.5458    0.0000 O   0  0  0  0  0  0  0  0  0  0  0  0
    0.3625    0.5458    0.0000 O   0  0  0  0  0  0  0  0  0  0  0  0
    2.7042   -1.1667    0.0000 C   0  0  0  0  0  0  0  0  0  0  0  0
    3.0417   -0.5000    0.0000 C   0  0  0  0  0  0  0  0  0  0  0  0
    2.3667   -1.9167    0.0000 C   0  0  0  0  0  0  0  0  0  0  0  0
  2  1  1  0
  3  1  1  0
  4  2  1  0
  5  3  1  0
  6  2  2  0
  7  3  2  0
  8  4  1  0
  9  4  1  0
 10  8  1  0
  4  5  1  0
M  END
>  <ID>  (666) 


>  <MOLENAME>  (666) 
ETHOSUXIMIDE

>  <therap>  (666) 
anticonvulsant

>  <ref>  (666) 
Nat. Rev. Neurol. (2010), 6(8), 420-421; CNS Drug Rev. (2007), 13(2), 224-239; Epilepsia (1964), 583-9

>  <cas#>  (666) 
77-67-8

>  <source>  (666) 
synthetic; CI-366, CN-10395, PM-671

>  <status>  (666) 
USP, INN, BAN, JAN

>  <tradename>  (666) 
ZARONTIN

>  <SMILES>  (666) 
CCC1(C)CC(=O)NC1=O

>  <standardized_failed>  (666) 
False

$$$$

     RDKit          2D

 25 26  0  0  0  0  0  0  0  0999 V2000
    6.1875   -5.3625    0.0000 C   0  0  0  0  0  0  0  0  0  0  0  0
    5.4750   -5.7750    0.0000 C   0  0  0  0  0  0  0  0  0  0  0  0
    6.9042   -5.7750    0.0000 O   0  0  0  0  0  0  0  0  0  0  0  0
    8.3292   -4.1250    0.0000 N   0  0  0  0  0  0  0  0  0  0  0  0
    6.1875   -4.5375    0.0000 O   0  0  0  0  0  0  0  0  0  0  0  0
    7.6167   -5.3625    0.0000 C   0  0  0  0  0  0  0  0  0  0  0  0
    5.4750   -6.6000    0.0000 C   0  0  0  0  0  0  0  0  0  0  0  0
    4.7542   -5.3625    0.0000 C   0  0  0  0  0  0  0  0  0  0  0  0
    7.6167   -4.5375    0.0000 C   0  0  0  0  0  0  0  0  0  0  0  0
    9.9792   -4.0542    0.0000 Cl  0  0  0  0  0  0  0  0  0  0  0  0
    9.0500   -4.5417    0.0000 C   0  0  0  0  0  0  0  0  0  0  0  0
    8.3292   -3.3000    0.0000 C   0  0  0  0  0  0  0  0  0  0  0  0
    9.0417   -5.3667    0.0000 C   0  0  0  0  0  0  0  0  0  0  0  0
    8.3292   -5.7750    0.0000 C   0  0  0  0  0  0  0  0  0  0  0  0
    4.7625   -7.0125    0.0000 C   0  0  0  0  0  0  0  0  0  0  0  0
    6.1875   -7.0042    0.0000 C   0  0  0  0  0  0  0  0  0  0  0  0
    4.0417   -5.7750    0.0000 C   0  0  0  0  0  0  0  0  0  0  0  0
    4.7542   -4.5375    0.0000 C   0  0  0  0  0  0  0  0  0  0  0  0
    9.0500   -2.8917    0.0000 C   0  0  0  0  0  0  0  0  0  0  0  0
    4.0417   -4.1250    0.0000 C   0  0  0  0  0  0  0  0  0  0  0  0
    3.3292   -5.3625    0.0000 C   0  0  0  0  0  0  0  0  0  0  0  0
    4.7625   -7.8375    0.0000 C   0  0  0  0  0  0  0  0  0  0  0  0
    6.1917   -7.8292    0.0000 C   0  0  0  0  0  0  0  0  0  0  0  0
    5.4792   -8.2500    0.0000 C   0  0  0  0  0  0  0  0  0  0  0  0
    3.3292   -4.5375    0.0000 C   0  0  0  0  0  0  0  0  0  0  0  0
  2  1  1  0
  3  1  1  0
  4  9  1  0
  5  1  2  0
  6  3  1  0
  7  2  1  0
  8  2  1  0
  9  6  1  0
 11 13  1  0
 12  4  1  0
 13 14  1  0
 14  6  1  0
 15  7  2  0
 16  7  1  0
 17  8  2  0
 18  8  1  0
 19 12  1  0
 20 18  2  0
 21 17  1  0
 22 15  1  0
 23 16  2  0
 24 23  1  0
 25 21  2  0
 11  4  1  0
 20 25  1  0
 24 22  2  0
M  END
>  <ID>  (667) 


>  <MOLENAME>  (667) 
PIPERIDOLATE HYDROCHLORIDE

>  <therap>  (667) 
antispasmodic

>  <ref>  (667) 
Arch Surg 75:780 (1957)

>  <cas#>  (667) 
129-77-1, 82-98-4 [piperidolate]

>  <source>  (667) 
synthetic

>  <status>  (667) 
USP-XX, INN, BAN, JAN

>  <tradename>  (667) 
DACTIL

>  <SMILES>  (667) 
CCN1CCCC(OC(=O)C(c2ccccc2)c2ccccc2)C1

>  <standardized_failed>  (667) 
False

$$$$

     RDKit          2D

 17 16  0  0  0  0  0  0  0  0999 V2000
    4.2125   -3.4792    0.0000 C   0  0  0  0  0  0  0  0  0  0  0  0
    2.9042   -0.4667    0.0000 N   0  0  0  0  0  0  0  0  0  0  0  0
    4.2125   -2.7292    0.0000 O   0  0  0  0  0  0  0  0  0  0  0  0
    2.9042   -1.2167    0.0000 C   0  0  0  0  0  0  0  0  0  0  0  0
    3.5625   -1.6000    0.0000 C   0  0  0  0  0  0  0  0  0  0  0  0
    3.5625   -3.8542    0.0000 N   0  0  0  0  0  0  0  0  0  0  0  0
    4.8625   -3.8542    0.0000 O   0  0  0  0  0  0  0  0  0  0  0  0
    3.5625   -2.3542    0.0000 C   0  0  0  0  0  0  0  0  0  0  0  0
    5.2042   -0.7417    0.0000 Br  0  0  0  0  0  0  0  0  0  0  0  0
    3.5542   -0.0917    0.0000 C   0  0  0  0  0  0  0  0  0  0  0  0
    2.2542   -0.0917    0.0000 C   0  0  0  0  0  0  0  0  0  0  0  0
    2.9167    0.4250    0.0000 C   0  0  0  0  0  0  0  0  0  0  0  0
    2.2542   -1.6000    0.0000 C   0  0  0  0  0  0  0  0  0  0  0  0
    2.2542   -2.3542    0.0000 C   0  0  0  0  0  0  0  0  0  0  0  0
    3.5625   -4.6042    0.0000 C   0  0  0  0  0  0  0  0  0  0  0  0
    2.9125   -3.4750    0.0000 C   0  0  0  0  0  0  0  0  0  0  0  0
    2.9042   -2.7292    0.0000 C   0  0  0  0  0  0  0  0  0  0  0  0
  2  4  1  0
  3  1  1  0
  4  5  2  0
  5  8  1  0
  6  1  1  0
  7  1  2  0
  8  3  1  0
 10  2  1  0
 11  2  1  0
 12  2  1  0
 13 14  2  0
 14 17  1  0
 15  6  1  0
 16  6  1  0
 17  8  2  0
 13  4  1  0
M  CHG  2   2   1   9  -1
M  END
>  <ID>  (668) 


>  <MOLENAME>  (668) 
NEOSTIGMINE BROMIDE

>  <therap>  (668) 
cholinergic

>  <ref>  (668) 
Ann. N. Y. Acad. Sci. (1976), 274, 143-73; Fed. Proc. (1946), 5, 263; Fed. Proc. (1946), 5(1 Pt 2), 198

>  <cas#>  (668) 
114-80-7, 59-99-4 [neostigmine]

>  <source>  (668) 
synthetic

>  <status>  (668) 
USP, INN, BAN, JAN

>  <tradename>  (668) 
nan

>  <SMILES>  (668) 
CN(C)C(=O)Oc1cccc([N+](C)(C)C)c1

>  <standardized_failed>  (668) 
False

$$$$

     RDKit          2D

 85 85  0  0  0  0  0  0  0  0999 V2000
    6.2792   -2.4167    0.0000 N   0  0  0  0  0  0  0  0  0  0  0  0
    5.5667   -2.0042    0.0000 C   0  0  0  0  0  0  0  0  0  0  0  0
    4.1542   -1.7667    0.0000 N   0  0  0  0  0  0  0  0  0  0  0  0
    6.9917   -2.0042    0.0000 C   0  0  0  0  0  0  0  0  0  0  0  0
    3.4667   -2.2292    0.0000 C   0  0  0  0  0  0  0  0  0  0  0  0
    2.0042   -2.4167    0.0000 N   0  0  0  0  0  0  0  0  0  0  0  0
    1.7917   -3.2167    0.0000 C   0  0  0  0  0  0  0  0  0  0  0  0
    1.9125   -4.5417    0.0000 N   0  0  0  0  0  0  0  0  0  0  0  0
    7.7042   -2.4167    0.0000 C   0  0  0  0  0  0  0  0  0  0  0  0
    6.1875   -6.5750    0.0000 N   0  0  0  0  0  0  0  0  0  0  0  0
    7.0917   -6.1667    0.0000 C   0  0  0  0  0  0  0  0  0  0  0  0
    2.7167   -2.0042    0.0000 C   0  0  0  0  0  0  0  0  0  0  0  0
    2.3167   -3.8542    0.0000 C   0  0  0  0  0  0  0  0  0  0  0  0
    8.5625   -6.0125    0.0000 N   0  0  0  0  0  0  0  0  0  0  0  0
   10.5792   -4.7667    0.0000 N   0  0  0  0  0  0  0  0  0  0  0  0
    1.0042   -5.3875    0.0000 C   0  0  0  0  0  0  0  0  0  0  0  0
    9.5667   -5.7750    0.0000 C   0  0  0  0  0  0  0  0  0  0  0  0
    4.8542   -2.4167    0.0000 C   0  0  0  0  0  0  0  0  0  0  0  0
    4.2792   -6.2292    0.0000 C   0  0  0  0  0  0  0  0  0  0  0  0
   10.7917   -3.9667    0.0000 C   0  0  0  0  0  0  0  0  0  0  0  0
    8.4167   -2.0042    0.0000 N   0  0  0  0  0  0  0  0  0  0  0  0
   10.4250   -2.5917    0.0000 N   0  0  0  0  0  0  0  0  0  0  0  0
    5.3167   -6.1375    0.0000 C   0  0  0  0  0  0  0  0  0  0  0  0
    7.9500   -6.6542    0.0000 C   0  0  0  0  0  0  0  0  0  0  0  0
    9.7792   -4.9750    0.0000 C   0  0  0  0  0  0  0  0  0  0  0  0
    9.8417   -2.0042    0.0000 C   0  0  0  0  0  0  0  0  0  0  0  0
    3.8167   -7.1042    0.0000 N   0  0  0  0  0  0  0  0  0  0  0  0
    1.0417   -7.1667    0.0000 N   0  0  0  0  0  0  0  0  0  0  0  0
    2.0417   -7.5667    0.0000 C   0  0  0  0  0  0  0  0  0  0  0  0
    0.7292   -6.2917    0.0000 C   0  0  0  0  0  0  0  0  0  0  0  0
    9.1292   -2.4167    0.0000 C   0  0  0  0  0  0  0  0  0  0  0  0
   10.2042   -3.3875    0.0000 C   0  0  0  0  0  0  0  0  0  0  0  0
    6.9917   -1.1792    0.0000 C   0  0  0  0  0  0  0  0  0  0  0  0
    2.8792   -6.7917    0.0000 C   0  0  0  0  0  0  0  0  0  0  0  0
    5.5667   -1.1792    0.0000 O   0  0  0  0  0  0  0  0  0  0  0  0
    3.5042   -2.9792    0.0000 O   0  0  0  0  0  0  0  0  0  0  0  0
    0.9125   -3.2917    0.0000 O   0  0  0  0  0  0  0  0  0  0  0  0
    7.1542   -5.3875    0.0000 O   0  0  0  0  0  0  0  0  0  0  0  0
    7.7042   -3.2417    0.0000 O   0  0  0  0  0  0  0  0  0  0  0  0
    0.3542   -4.9792    0.0000 O   0  0  0  0  0  0  0  0  0  0  0  0
    2.7167   -1.1792    0.0000 C   0  0  0  0  0  0  0  0  0  0  0  0
    3.1750   -3.5792    0.0000 C   0  0  0  0  0  0  0  0  0  0  0  0
   10.1417   -6.3542    0.0000 O   0  0  0  0  0  0  0  0  0  0  0  0
    3.8292   -5.5417    0.0000 O   0  0  0  0  0  0  0  0  0  0  0  0
   11.5875   -3.7542    0.0000 O   0  0  0  0  0  0  0  0  0  0  0  0
    9.9542   -1.1875    0.0000 O   0  0  0  0  0  0  0  0  0  0  0  0
    5.3167   -5.2000    0.0000 C   0  0  0  0  0  0  0  0  0  0  0  0
    9.1917   -4.3917    0.0000 C   0  0  0  0  0  0  0  0  0  0  0  0
    2.1625   -8.3250    0.0000 O   0  0  0  0  0  0  0  0  0  0  0  0
    4.8542   -3.2417    0.0000 C   0  0  0  0  0  0  0  0  0  0  0  0
    8.0667   -7.4667    0.0000 C   0  0  0  0  0  0  0  0  0  0  0  0
    6.2792   -3.2417    0.0000 C   0  0  0  0  0  0  0  0  0  0  0  0
    8.4167    0.4708    0.0000 C   0  0  0  0  0  0  0  0  0  0  0  0
    4.1625   -0.8917    0.0000 C   0  0  0  0  0  0  0  0  0  0  0  0
    8.4167    1.2958    0.0000 C   0  0  0  0  0  0  0  0  0  0  0  0
    1.3500   -1.9167    0.0000 C   0  0  0  0  0  0  0  0  0  0  0  0
    0.8167   -4.1667    0.0000 C   0  0  0  0  0  0  0  0  0  0  0  0
    6.0875   -7.3917    0.0000 C   0  0  0  0  0  0  0  0  0  0  0  0
    7.7042   -0.7667    0.0000 C   0  0  0  0  0  0  0  0  0  0  0  0
   11.1542   -5.3500    0.0000 C   0  0  0  0  0  0  0  0  0  0  0  0
    6.2792   -0.7667    0.0000 O   0  0  0  0  0  0  0  0  0  0  0  0
   11.2167   -2.3792    0.0000 C   0  0  0  0  0  0  0  0  0  0  0  0
    9.1292   -3.2417    0.0000 C   0  0  0  0  0  0  0  0  0  0  0  0
   -0.1458   -6.5417    0.0000 C   0  0  0  0  0  0  0  0  0  0  0  0
    7.7042    0.0583    0.0000 C   0  0  0  0  0  0  0  0  0  0  0  0
    3.7542   -4.1625    0.0000 C   0  0  0  0  0  0  0  0  0  0  0  0
    2.0042   -0.7667    0.0000 C   0  0  0  0  0  0  0  0  0  0  0  0
    8.4000   -4.6042    0.0000 C   0  0  0  0  0  0  0  0  0  0  0  0
    6.0667   -4.8292    0.0000 C   0  0  0  0  0  0  0  0  0  0  0  0
    2.6917   -5.7917    0.0000 C   0  0  0  0  0  0  0  0  0  0  0  0
    9.1250    1.7208    0.0000 C   0  0  0  0  0  0  0  0  0  0  0  0
    7.4250   -7.9792    0.0000 C   0  0  0  0  0  0  0  0  0  0  0  0
    8.8375   -7.7750    0.0000 C   0  0  0  0  0  0  0  0  0  0  0  0
    4.1417   -3.6542    0.0000 C   0  0  0  0  0  0  0  0  0  0  0  0
    5.5667   -3.6542    0.0000 C   0  0  0  0  0  0  0  0  0  0  0  0
    8.4167   -1.1792    0.0000 C   0  0  0  0  0  0  0  0  0  0  0  0
    6.7167   -5.2625    0.0000 C   0  0  0  0  0  0  0  0  0  0  0  0
    6.0917   -4.0667    0.0000 C   0  0  0  0  0  0  0  0  0  0  0  0
    3.9667   -4.9542    0.0000 C   0  0  0  0  0  0  0  0  0  0  0  0
    2.0042    0.0583    0.0000 C   0  0  0  0  0  0  0  0  0  0  0  0
    1.2917   -1.1792    0.0000 C   0  0  0  0  0  0  0  0  0  0  0  0
    7.8167   -4.0167    0.0000 C   0  0  0  0  0  0  0  0  0  0  0  0
    8.1875   -5.4000    0.0000 C   0  0  0  0  0  0  0  0  0  0  0  0
    4.5542   -3.9417    0.0000 C   0  0  0  0  0  0  0  0  0  0  0  0
    8.4167   -3.6542    0.0000 C   0  0  0  0  0  0  0  0  0  0  0  0
  2  1  1  0
  3 18  1  0
  4  1  1  0
  5  3  1  0
  6 12  1  0
  7  6  1  0
  8 13  1  0
  9  4  1  0
 10 11  1  0
 11 24  1  0
 12  5  1  0
 13  7  1  0
 14 17  1  0
 15 20  1  0
 16  8  1  0
 17 25  1  0
 18  2  1  0
 19 27  1  0
 20 32  1  0
 21  9  1  0
 22 26  1  0
 23 10  1  0
 24 14  1  0
 25 15  1  0
 26 31  1  0
 27 34  1  0
 28 30  1  0
 29 28  1  0
 30 16  1  0
 31 21  1  0
 32 22  1  0
 33  4  1  0
 34 29  1  0
 35  2  2  0
 36  5  2  0
 37  7  2  0
 38 11  2  0
 39  9  2  0
 40 16  2  0
 41 12  1  0
 42 13  1  0
 43 17  2  0
 44 19  2  0
 45 20  2  0
 46 26  2  0
 47 23  1  0
 48 25  1  0
 49 29  2  0
 50 18  1  0
 51 24  1  0
 52  1  1  0
 53 65  1  0
 54  3  1  0
 55 53  2  0
 56  6  1  0
 57  8  1  0
 58 10  1  0
 59 33  1  0
 60 15  1  0
 61 33  1  0
 62 22  1  0
 63 31  1  0
 64 30  1  0
 65 59  1  0
 66 42  1  0
 67 41  1  0
 68 48  1  0
 69 47  1  0
 70 34  1  0
 71 55  1  0
 72 51  1  0
 73 51  1  0
 74 50  1  0
 75 50  1  0
 76 59  1  0
 77 69  1  0
 78 69  1  0
 79 66  1  0
 80 67  1  0
 81 67  1  0
 82 68  1  0
 83 68  1  0
 84 66  1  0
 85 63  1  0
 19 23  1  0
M  END
>  <ID>  (669) 


>  <MOLENAME>  (669) 
CYCLOSPORINE

>  <therap>  (669) 
immunosuppressant

>  <ref>  (669) 
Helv Chim Acta 60: 1568 (1977)

>  <cas#>  (669) 
59865-13-3

>  <source>  (669) 
Tolypocladium inflatum; 27-400

>  <status>  (669) 
USP, INN, BAN, JAN

>  <tradename>  (669) 
SANDIMMUNE

>  <SMILES>  (669) 
C/C=C/CC(C)C(O)C1C(=O)NC(CC)C(=O)N(C)CC(=O)N(C)C(CC(C)C)C(=O)NC(C(C)C)C(=O)N(C)C(CC(C)C)C(=O)NC(C)C(=O)NC(C)C(=O)N(C)C(CC(C)C)C(=O)N(C)C(CC(C)C)C(=O)N(C)C(C(C)C)C(=O)N1C

>  <standardized_failed>  (669) 
False

$$$$

     RDKit          2D

 12 12  0  0  0  0  0  0  0  0999 V2000
    6.8417   -4.1042    0.0000 C   0  0  0  0  0  0  0  0  0  0  0  0
    6.0167   -4.1042    0.0000 C   0  0  0  0  0  0  0  0  0  0  0  0
    7.1000   -3.3167    0.0000 C   0  0  0  0  0  0  0  0  0  0  0  0
    5.7667   -3.3167    0.0000 C   0  0  0  0  0  0  0  0  0  0  0  0
    6.4292   -2.8375    0.0000 O   0  0  0  0  0  0  0  0  0  0  0  0
    4.9875   -3.0667    0.0000 C   0  0  0  0  0  0  0  0  0  0  0  0
    7.8875   -3.0667    0.0000 O   0  0  0  0  0  0  0  0  0  0  0  0
    7.3292   -4.7750    0.0000 O   0  0  0  0  0  0  0  0  0  0  0  0
    5.5375   -4.7750    0.0000 O   0  0  0  0  0  0  0  0  0  0  0  0
    4.8125   -2.2625    0.0000 O   0  0  0  0  0  0  0  0  0  0  0  0
    3.5875   -3.3667    0.0000 O   0  0  0  0  0  0  0  0  0  0  0  0
    4.3667   -3.6167    0.0000 C   0  0  0  0  0  0  0  0  0  0  0  0
  2  1  2  0
  3  1  1  0
  4  2  1  0
  5  3  1  0
  4  6  1  1
  7  3  2  0
  8  1  1  0
  9  2  1  0
 10  6  1  0
 11 12  1  0
 12  6  1  0
  5  4  1  0
M  END
>  <ID>  (670) 


>  <MOLENAME>  (670) 
ASCORBIC ACID

>  <therap>  (670) 
antiscorbutic, antiviral

>  <ref>  (670) 
PNAS 68:2678 (1971); N Eng J Med 314:892 (1986); Scand J Inf Dis 26:1 (1994)

>  <cas#>  (670) 
50-81-7

>  <source>  (670) 
Vitamin C

>  <status>  (670) 
USP, INN, BAN, JAN

>  <tradename>  (670) 
CENOLATE

>  <SMILES>  (670) 
O=C1O[C@H](C(O)CO)C(O)=C1O

>  <standardized_failed>  (670) 
False

$$$$

     RDKit          2D

 13 14  0  0  0  0  0  0  0  0999 V2000
    3.0667   -0.5792    0.0000 C   0  0  0  0  0  0  0  0  0  0  0  0
    3.7792   -0.9917    0.0000 C   0  0  0  0  0  0  0  0  0  0  0  0
    3.0625   -2.2292    0.0000 C   0  0  0  0  0  0  0  0  0  0  0  0
    2.3542   -0.9917    0.0000 C   0  0  0  0  0  0  0  0  0  0  0  0
    3.7792   -1.8167    0.0000 C   0  0  0  0  0  0  0  0  0  0  0  0
    2.3500   -1.8167    0.0000 C   0  0  0  0  0  0  0  0  0  0  0  0
    3.0667    0.2458    0.0000 O   0  0  0  0  0  0  0  0  0  0  0  0
    3.0542   -3.0542    0.0000 O   0  0  0  0  0  0  0  0  0  0  0  0
    4.4917   -0.5875    0.0000 C   0  0  0  0  0  0  0  0  0  0  0  0
    1.6417   -0.5750    0.0000 C   0  0  0  0  0  0  0  0  0  0  0  0
    1.6417   -2.2250    0.0000 C   0  0  0  0  0  0  0  0  0  0  0  0
    0.9292   -0.9917    0.0000 C   0  0  0  0  0  0  0  0  0  0  0  0
    0.9292   -1.8167    0.0000 C   0  0  0  0  0  0  0  0  0  0  0  0
  2  1  1  0
  3  6  1  0
  4  1  1  0
  5  2  2  0
  6  4  2  0
  7  1  2  0
  8  3  2  0
  9  2  1  0
 10  4  1  0
 11  6  1  0
 12 10  2  0
 13 12  1  0
  5  3  1  0
 11 13  2  0
M  END
>  <ID>  (671) 


>  <MOLENAME>  (671) 
MENADIONE

>  <therap>  (671) 
prothrombogenic agent

>  <ref>  (671) 
J Nat Prod 47: 901 (1984)

>  <cas#>  (671) 
58-27-5

>  <source>  (671) 
Asplenium and Juglans spp.

>  <status>  (671) 
USP, BAN

>  <tradename>  (671) 
KAYQUINONE

>  <SMILES>  (671) 
CC1=CC(=O)c2c(cccc2)C1=O

>  <standardized_failed>  (671) 
False

$$$$

     RDKit          2D

 20 21  0  0  0  0  0  0  0  0999 V2000
    5.3917   -3.2000    0.0000 C   0  0  0  0  0  0  0  0  0  0  0  0
    4.6792   -2.7875    0.0000 C   0  0  0  0  0  0  0  0  0  0  0  0
    4.6750   -1.9542    0.0000 C   0  0  0  0  0  0  0  0  0  0  0  0
    6.1042   -2.7792    0.0000 O   0  0  0  0  0  0  0  0  0  0  0  0
    5.3917   -1.5417    0.0000 C   0  0  0  0  0  0  0  0  0  0  0  0
    6.1042   -1.9542    0.0000 C   0  0  0  0  0  0  0  0  0  0  0  0
    5.3917   -4.0167    0.0000 O   0  0  0  0  0  0  0  0  0  0  0  0
    5.4000   -4.8417    0.0000 C   0  0  0  0  0  0  0  0  0  0  0  0
    6.1167   -5.2542    0.0000 C   0  0  0  0  0  0  0  0  0  0  0  0
    3.9625   -3.2000    0.0000 O   0  0  0  0  0  0  0  0  0  0  0  0
    3.9625   -1.5500    0.0000 O   0  0  0  0  0  0  0  0  0  0  0  0
    5.3875   -0.7250    0.0000 O   0  0  0  0  0  0  0  0  0  0  0  0
    6.8167   -1.5417    0.0000 C   0  0  0  0  0  0  0  0  0  0  0  0
    6.8292   -4.8417    0.0000 C   0  0  0  0  0  0  0  0  0  0  0  0
    6.6667   -0.7292    0.0000 O   0  0  0  0  0  0  0  0  0  0  0  0
    7.5417   -5.2500    0.0000 O   0  0  0  0  0  0  0  0  0  0  0  0
    4.6875   -5.2625    0.0000 C   0  0  0  0  0  0  0  0  0  0  0  0
    6.1167   -6.0875    0.0000 C   0  0  0  0  0  0  0  0  0  0  0  0
    5.4000   -6.5000    0.0000 C   0  0  0  0  0  0  0  0  0  0  0  0
    4.6875   -6.0875    0.0000 C   0  0  0  0  0  0  0  0  0  0  0  0
  2  1  1  0
  3  2  1  0
  4  1  1  0
  5  6  1  0
  6  4  1  0
  1  7  1  1
  8  7  1  0
  9  8  2  0
  2 10  1  6
  3 11  1  1
  5 12  1  6
  6 13  1  1
 14  9  1  0
 15 13  1  0
 16 14  1  0
 17  8  1  0
 18  9  1  0
 19 20  1  0
 20 17  2  0
  3  5  1  0
 19 18  2  0
M  END
>  <ID>  (672) 


>  <MOLENAME>  (672) 
SALICIN

>  <therap>  (672) 
analgesic, antipyretic

>  <ref>  (672) 
Am J Med Sci 80:273 (1880); Arch Intern Med 101:997 (1958)

>  <cas#>  (672) 
138-52-3

>  <source>  (672) 
Salix spp

>  <status>  (672) 
USP-IX

>  <tradename>  (672) 
nan

>  <SMILES>  (672) 
OCc1c(O[C@@H]2O[C@H](CO)[C@@H](O)[C@H](O)[C@H]2O)cccc1

>  <standardized_failed>  (672) 
False

$$$$

     RDKit          2D

 48 51  0  0  0  0  0  0  0  0999 V2000
    3.2042   -2.2042    0.0000 C   0  0  0  0  0  0  0  0  0  0  0  0
    2.4917   -3.4292    0.0000 C   0  0  0  0  0  0  0  0  0  0  0  0
    9.8042   -2.5792    0.0000 O   0  0  0  0  0  0  0  0  0  0  0  0
    8.1292   -2.1667    0.0000 O   0  0  0  0  0  0  0  0  0  0  0  0
   10.6042   -2.7542    0.0000 C   0  0  0  0  0  0  0  0  0  0  0  0
    6.6667   -2.0917    0.0000 C   0  0  0  0  0  0  0  0  0  0  0  0
    8.7417   -1.6167    0.0000 C   0  0  0  0  0  0  0  0  0  0  0  0
    3.2042   -3.0292    0.0000 O   0  0  0  0  0  0  0  0  0  0  0  0
    2.4917   -4.2542    0.0000 C   0  0  0  0  0  0  0  0  0  0  0  0
    7.4167   -1.7542    0.0000 C   0  0  0  0  0  0  0  0  0  0  0  0
    9.5542   -1.7917    0.0000 C   0  0  0  0  0  0  0  0  0  0  0  0
    1.9417   -5.5792    0.0000 C   0  0  0  0  0  0  0  0  0  0  0  0
    5.9542   -1.6792    0.0000 O   0  0  0  0  0  0  0  0  0  0  0  0
    3.9167   -2.6167    0.0000 O   0  0  0  0  0  0  0  0  0  0  0  0
    1.7917   -3.0292    0.0000 C   0  0  0  0  0  0  0  0  0  0  0  0
    1.8292   -4.7542    0.0000 C   0  0  0  0  0  0  0  0  0  0  0  0
    4.5292   -2.0667    0.0000 C   0  0  0  0  0  0  0  0  0  0  0  0
    2.4917   -1.7792    0.0000 C   0  0  0  0  0  0  0  0  0  0  0  0
    2.7042   -5.8917    0.0000 C   0  0  0  0  0  0  0  0  0  0  0  0
    1.7917   -2.2042    0.0000 C   0  0  0  0  0  0  0  0  0  0  0  0
    5.3417   -2.2292    0.0000 C   0  0  0  0  0  0  0  0  0  0  0  0
    7.5917   -0.9542    0.0000 C   0  0  0  0  0  0  0  0  0  0  0  0
   10.1042   -1.1792    0.0000 C   0  0  0  0  0  0  0  0  0  0  0  0
    8.4167   -0.8667    0.0000 C   0  0  0  0  0  0  0  0  0  0  0  0
   11.1667   -2.1417    0.0000 C   0  0  0  0  0  0  0  0  0  0  0  0
   10.9167   -1.3542    0.0000 C   0  0  0  0  0  0  0  0  0  0  0  0
    6.4917   -2.9042    0.0000 C   0  0  0  0  0  0  0  0  0  0  0  0
    2.8167   -6.7042    0.0000 O   0  0  0  0  0  0  0  0  0  0  0  0
    4.2042   -1.3042    0.0000 C   0  0  0  0  0  0  0  0  0  0  0  0
    3.3542   -5.3917    0.0000 O   0  0  0  0  0  0  0  0  0  0  0  0
    3.3792   -1.3917    0.0000 C   0  0  0  0  0  0  0  0  0  0  0  0
    5.6792   -2.9917    0.0000 C   0  0  0  0  0  0  0  0  0  0  0  0
   10.8542   -3.5417    0.0000 O   0  0  0  0  0  0  0  0  0  0  0  0
    1.0667   -4.4417    0.0000 O   0  0  0  0  0  0  0  0  0  0  0  0
    1.0667   -1.7917    0.0000 O   0  0  0  0  0  0  0  0  0  0  0  0
   11.4042   -2.9667    0.0000 C   0  0  0  0  0  0  0  0  0  0  0  0
    6.6667   -1.2667    0.0000 C   0  0  0  0  0  0  0  0  0  0  0  0
    1.2792   -6.0792    0.0000 C   0  0  0  0  0  0  0  0  0  0  0  0
    3.2917   -4.4667    0.0000 C   0  0  0  0  0  0  0  0  0  0  0  0
    1.0667   -3.4417    0.0000 C   0  0  0  0  0  0  0  0  0  0  0  0
    4.6417   -6.1792    0.0000 Na  0  0  0  0  0 15  0  0  0  0  0  0
    4.5292   -2.8917    0.0000 C   0  0  0  0  0  0  0  0  0  0  0  0
    9.8542   -0.3917    0.0000 C   0  0  0  0  0  0  0  0  0  0  0  0
    7.0417   -0.3417    0.0000 C   0  0  0  0  0  0  0  0  0  0  0  0
   11.9542   -2.3542    0.0000 C   0  0  0  0  0  0  0  0  0  0  0  0
    0.4167   -4.9417    0.0000 C   0  0  0  0  0  0  0  0  0  0  0  0
   11.6167   -3.7667    0.0000 C   0  0  0  0  0  0  0  0  0  0  0  0
    5.9417   -0.8667    0.0000 C   0  0  0  0  0  0  0  0  0  0  0  0
  2  8  1  6
  3 11  1  0
  4 10  1  0
  5  3  1  0
  6 13  1  0
  7  4  1  0
  8  1  1  0
  2  9  1  0
 10  6  1  0
  7 11  1  6
 12 16  1  0
 21 13  1  0
 14  1  1  0
 15 20  1  0
 16  9  1  0
 17 14  1  0
 18  1  1  0
 19 12  1  0
 20 18  1  0
 21 17  1  0
 22 10  1  0
 23 11  1  0
 24 22  1  0
 25 26  1  0
 26 23  1  0
 27 32  1  0
 28 19  1  0
 29 31  1  0
 30 19  2  0
 31  1  1  0
 21 32  1  6
  5 33  1  1
 16 34  1  6
 20 35  1  1
  5 36  1  0
  6 37  1  1
 12 38  1  1
  9 39  1  6
 15 40  1  6
 17 42  1  6
 23 43  1  1
 22 44  1  1
 25 45  1  1
 46 34  1  0
 47 36  1  0
 48 37  1  0
 29 17  1  0
  2 15  1  0
  6 27  1  0
 24  7  1  0
 25  5  1  0
M  CHG  2  28  -1  41   1
M  END
>  <ID>  (673) 


>  <MOLENAME>  (673) 
MONENSIN SODIUM (monensin A is shown)

>  <therap>  (673) 
antibacterial

>  <ref>  (673) 
J Am Chem Soc 89: 5737 (1967)

>  <cas#>  (673) 
22373-78-0, 17090-79-8 (monensin)

>  <source>  (673) 
Streptomyces cinnamonensis; 67314

>  <status>  (673) 
USP, INN, BAN

>  <tradename>  (673) 
RUMENSIN

>  <SMILES>  (673) 
CC[C@@]1(C2O[C@@H](C3O[C@@](O)(CC)[C@H](C)C[C@@H]3C)C[C@@H]2C)CC[C@H]([C@]2(C)CCC3(C[C@H](O)[C@@H](C)[C@@H]([C@H](C)[C@@H](OC)[C@H](C)C(=O)O)O3)O2)O1

>  <standardized_failed>  (673) 
False

$$$$

     RDKit          2D

 34 38  0  0  0  0  0  0  0  0999 V2000
    4.6250   -3.1042    0.0000 C   0  0  0  0  0  0  0  0  0  0  0  0
    4.1417   -2.4292    0.0000 N   0  0  0  0  0  0  0  0  0  0  0  0
    4.1417   -3.7667    0.0000 N   0  0  0  0  0  0  0  0  0  0  0  0
    3.3542   -2.6875    0.0000 C   0  0  0  0  0  0  0  0  0  0  0  0
    3.3542   -3.5125    0.0000 C   0  0  0  0  0  0  0  0  0  0  0  0
    5.4500   -3.1042    0.0000 N   0  0  0  0  0  0  0  0  0  0  0  0
    6.6917   -0.9625    0.0000 N   0  0  0  0  0  0  0  0  0  0  0  0
    4.3917   -1.6417    0.0000 C   0  0  0  0  0  0  0  0  0  0  0  0
    5.8625   -2.3917    0.0000 C   0  0  0  0  0  0  0  0  0  0  0  0
    6.6917   -2.3917    0.0000 C   0  0  0  0  0  0  0  0  0  0  0  0
    5.4500   -1.6792    0.0000 C   0  0  0  0  0  0  0  0  0  0  0  0
    5.8625   -0.9625    0.0000 C   0  0  0  0  0  0  0  0  0  0  0  0
    7.1042   -1.6792    0.0000 C   0  0  0  0  0  0  0  0  0  0  0  0
    7.1042   -0.2375    0.0000 C   0  0  0  0  0  0  0  0  0  0  0  0
    3.8417   -1.0292    0.0000 C   0  0  0  0  0  0  0  0  0  0  0  0
    2.7375    0.1958    0.0000 C   0  0  0  0  0  0  0  0  0  0  0  0
    8.3542    0.4833    0.0000 C   0  0  0  0  0  0  0  0  0  0  0  0
    9.1792    1.9125    0.0000 C   0  0  0  0  0  0  0  0  0  0  0  0
    2.1500    0.7833    0.0000 F   0  0  0  0  0  0  0  0  0  0  0  0
    7.9417   -0.2292    0.0000 C   0  0  0  0  0  0  0  0  0  0  0  0
    3.0375   -1.2042    0.0000 C   0  0  0  0  0  0  0  0  0  0  0  0
    4.0917   -0.2417    0.0000 C   0  0  0  0  0  0  0  0  0  0  0  0
    3.5417    0.3625    0.0000 C   0  0  0  0  0  0  0  0  0  0  0  0
    2.4875   -0.6000    0.0000 C   0  0  0  0  0  0  0  0  0  0  0  0
    7.9417    1.1958    0.0000 C   0  0  0  0  0  0  0  0  0  0  0  0
    9.1792    0.4833    0.0000 C   0  0  0  0  0  0  0  0  0  0  0  0
    9.5917    1.1958    0.0000 C   0  0  0  0  0  0  0  0  0  0  0  0
    8.3542    1.9125    0.0000 C   0  0  0  0  0  0  0  0  0  0  0  0
    2.6417   -2.2750    0.0000 C   0  0  0  0  0  0  0  0  0  0  0  0
    9.6000    2.6458    0.0000 O   0  0  0  0  0  0  0  0  0  0  0  0
    2.6417   -3.9250    0.0000 C   0  0  0  0  0  0  0  0  0  0  0  0
   10.4292    2.6458    0.0000 C   0  0  0  0  0  0  0  0  0  0  0  0
    1.9292   -2.6875    0.0000 C   0  0  0  0  0  0  0  0  0  0  0  0
    1.9292   -3.5125    0.0000 C   0  0  0  0  0  0  0  0  0  0  0  0
  2  1  1  0
  3  1  2  0
  4  2  1  0
  5  3  1  0
  6  1  1  0
  7 12  1  0
  8  2  1  0
  9  6  1  0
 10  9  1  0
 11  9  1  0
 12 11  1  0
 13 10  1  0
 14  7  1  0
 15  8  1  0
 16 23  2  0
 17 20  1  0
 18 27  2  0
 19 16  1  0
 20 14  1  0
 21 15  1  0
 22 15  2  0
 23 22  1  0
 24 21  2  0
 25 17  1  0
 26 17  2  0
 27 26  1  0
 28 25  2  0
 29  4  2  0
 30 18  1  0
 31  5  2  0
 32 30  1  0
 33 29  1  0
 34 31  1  0
  5  4  1  0
  7 13  1  0
 34 33  2  0
 24 16  1  0
 28 18  1  0
M  END
>  <ID>  (674) 


>  <MOLENAME>  (674) 
ASTEMIZOLE

>  <therap>  (674) 
H1 antihistamine (nonsedating)

>  <ref>  (674) 
Curr Ther Res 29:24 (1981); 31:638 (1982); Drugs 28:38 (1984)

>  <cas#>  (674) 
68844-77-9

>  <source>  (674) 
synthetic

>  <status>  (674) 
USP, INN, BAN, JAN

>  <tradename>  (674) 
HISMANAL

>  <SMILES>  (674) 
COc1ccc(CCN2CCC(Nc3nc4ccccc4n3Cc3ccc(F)cc3)CC2)cc1

>  <standardized_failed>  (674) 
False

$$$$

     RDKit          2D

  9  9  0  0  0  0  0  0  0  0999 V2000
    2.5500   -0.7292    0.0000 C   0  0  0  0  0  0  0  0  0  0  0  0
    1.8375   -0.3167    0.0000 O   0  0  0  0  0  0  0  0  0  0  0  0
    2.5542   -1.5542    0.0000 C   0  0  0  0  0  0  0  0  0  0  0  0
    3.2667   -0.3167    0.0000 O   0  0  0  0  0  0  0  0  0  0  0  0
    1.8417   -1.9667    0.0000 C   0  0  0  0  0  0  0  0  0  0  0  0
    3.2667   -1.9667    0.0000 C   0  0  0  0  0  0  0  0  0  0  0  0
    3.2667   -2.7917    0.0000 C   0  0  0  0  0  0  0  0  0  0  0  0
    1.8417   -2.7917    0.0000 C   0  0  0  0  0  0  0  0  0  0  0  0
    2.5542   -3.2042    0.0000 C   0  0  0  0  0  0  0  0  0  0  0  0
  2  1  2  0
  3  1  1  0
  4  1  1  0
  5  3  2  0
  6  3  1  0
  7  6  2  0
  8  5  1  0
  9  7  1  0
  9  8  2  0
M  END
>  <ID>  (675) 


>  <MOLENAME>  (675) 
BENZOIC ACID

>  <therap>  (675) 
antifungal

>  <ref>  (675) 
Appl Microbiol 16:1524 (1968); Appl Environ Microbiol 1991:1

>  <cas#>  (675) 
65-85-0

>  <source>  (675) 
synthetic

>  <status>  (675) 
USP, JAN

>  <tradename>  (675) 
nan

>  <SMILES>  (675) 
O=C(O)c1ccccc1

>  <standardized_failed>  (675) 
False

$$$$

     RDKit          2D

 16 17  0  0  0  0  0  0  0  0999 V2000
    3.0375   -0.9167    0.0000 C   0  0  0  0  0  0  0  0  0  0  0  0
    3.7542   -1.3292    0.0000 O   0  0  0  0  0  0  0  0  0  0  0  0
    3.0292   -0.0917    0.0000 O   0  0  0  0  0  0  0  0  0  0  0  0
    2.3167   -1.3375    0.0000 C   0  0  0  0  0  0  0  0  0  0  0  0
    4.4667   -0.9167    0.0000 C   0  0  0  0  0  0  0  0  0  0  0  0
    5.1792   -1.3292    0.0000 C   0  0  0  0  0  0  0  0  0  0  0  0
    1.6042   -0.9250    0.0000 C   0  0  0  0  0  0  0  0  0  0  0  0
    2.3167   -2.1667    0.0000 C   0  0  0  0  0  0  0  0  0  0  0  0
    5.1792   -2.1542    0.0000 C   0  0  0  0  0  0  0  0  0  0  0  0
    5.8917   -0.9167    0.0000 C   0  0  0  0  0  0  0  0  0  0  0  0
    0.8917   -1.3375    0.0000 C   0  0  0  0  0  0  0  0  0  0  0  0
    1.6042   -2.5792    0.0000 C   0  0  0  0  0  0  0  0  0  0  0  0
    6.6042   -1.3250    0.0000 C   0  0  0  0  0  0  0  0  0  0  0  0
    5.8917   -2.5667    0.0000 C   0  0  0  0  0  0  0  0  0  0  0  0
    0.8917   -2.1667    0.0000 C   0  0  0  0  0  0  0  0  0  0  0  0
    6.6042   -2.1542    0.0000 C   0  0  0  0  0  0  0  0  0  0  0  0
  2  1  1  0
  3  1  2  0
  4  1  1  0
  5  2  1  0
  6  5  1  0
  7  4  2  0
  8  4  1  0
  9  6  2  0
 10  6  1  0
 11  7  1  0
 12  8  2  0
 13 10  2  0
 14  9  1  0
 15 12  1  0
 16 13  1  0
 11 15  2  0
 14 16  2  0
M  END
>  <ID>  (676) 


>  <MOLENAME>  (676) 
BENZYL BENZOATE

>  <therap>  (676) 
scabicide

>  <ref>  (676) 
J Pharmacol Exper Ther 84:358 (1945); 93:26 (1948)

>  <cas#>  (676) 
120-51-4

>  <source>  (676) 
synthetic

>  <status>  (676) 
USP, JAN

>  <tradename>  (676) 
ASCABIOL

>  <SMILES>  (676) 
O=C(OCc1ccccc1)c1ccccc1

>  <standardized_failed>  (676) 
False

$$$$

     RDKit          2D

 18 19  0  0  0  0  0  0  0  0999 V2000
    0.7500    0.0333    0.0000 C   0  0  0  0  0  0  0  0  0  0  0  0
    2.4000   -1.3917    0.0000 C   0  0  0  0  0  0  0  0  0  0  0  0
    1.9875   -0.6792    0.0000 O   0  0  0  0  0  0  0  0  0  0  0  0
    1.1625   -0.6792    0.0000 O   0  0  0  0  0  0  0  0  0  0  0  0
    1.1625    0.7458    0.0000 O   0  0  0  0  0  0  0  0  0  0  0  0
    1.9875   -2.1042    0.0000 O   0  0  0  0  0  0  0  0  0  0  0  0
    3.2250   -1.3917    0.0000 C   0  0  0  0  0  0  0  0  0  0  0  0
   -0.0750    0.0333    0.0000 C   0  0  0  0  0  0  0  0  0  0  0  0
   -0.4875    0.7458    0.0000 C   0  0  0  0  0  0  0  0  0  0  0  0
   -0.4875   -0.6792    0.0000 C   0  0  0  0  0  0  0  0  0  0  0  0
    3.6292   -2.1042    0.0000 C   0  0  0  0  0  0  0  0  0  0  0  0
    3.6292   -0.6792    0.0000 C   0  0  0  0  0  0  0  0  0  0  0  0
   -1.3125    0.7458    0.0000 C   0  0  0  0  0  0  0  0  0  0  0  0
    4.4542   -2.1042    0.0000 C   0  0  0  0  0  0  0  0  0  0  0  0
    4.4500   -0.6750    0.0000 C   0  0  0  0  0  0  0  0  0  0  0  0
   -1.3125   -0.6792    0.0000 C   0  0  0  0  0  0  0  0  0  0  0  0
   -1.7208    0.0333    0.0000 C   0  0  0  0  0  0  0  0  0  0  0  0
    4.8667   -1.3875    0.0000 C   0  0  0  0  0  0  0  0  0  0  0  0
  2  3  1  0
  3  4  1  0
  4  1  1  0
  5  1  2  0
  6  2  2  0
  7  2  1  0
  8  1  1  0
  9  8  2  0
 10  8  1  0
 11  7  2  0
 12  7  1  0
 13  9  1  0
 14 11  1  0
 15 12  2  0
 16 10  2  0
 17 16  1  0
 18 15  1  0
 17 13  2  0
 18 14  2  0
M  END
>  <ID>  (677) 


>  <MOLENAME>  (677) 
BENZOYL PEROXIDE

>  <therap>  (677) 
keratolytic

>  <ref>  (677) 
Brit J Dermatol 119:615 (1988); Int J Dermatol 30:467 (1991)

>  <cas#>  (677) 
94-36-0

>  <source>  (677) 
synthetic; NSC-675

>  <status>  (677) 
USP

>  <tradename>  (677) 
LOROXIDE

>  <SMILES>  (677) 
O=C(OOC(=O)c1ccccc1)c1ccccc1

>  <standardized_failed>  (677) 
False

$$$$

     RDKit          2D

  9  7  0  0  0  0  0  0  0  0999 V2000
    6.6542   -5.9000    0.0000 C   0  0  0  0  0  0  0  0  0  0  0  0
    5.4250   -5.1792    0.0000 N   0  0  0  0  0  0  0  0  0  0  0  0
    7.4792   -5.9042    0.0000 O   0  0  0  0  0  0  0  0  0  0  0  0
    6.2500   -5.1792    0.0000 C   0  0  0  0  0  0  0  0  0  0  0  0
    6.2375   -6.6125    0.0000 O   0  0  0  0  0  0  0  0  0  0  0  0
    7.0417   -4.3667    0.0000 Cl  0  0  0  0  0  0  0  0  0  0  0  0
    5.2125   -5.9667    0.0000 C   0  0  0  0  0  0  0  0  0  0  0  0
    4.6000   -5.1750    0.0000 C   0  0  0  0  0  0  0  0  0  0  0  0
    5.2125   -4.3792    0.0000 C   0  0  0  0  0  0  0  0  0  0  0  0
  2  4  1  0
  3  1  1  0
  4  1  1  0
  5  1  2  0
  7  2  1  0
  8  2  1  0
  9  2  1  0
M  CHG  2   2   1   3  -1
M  END
>  <ID>  (678) 


>  <MOLENAME>  (678) 
BETAINE HYDROCHLORIDE

>  <therap>  (678) 
antiarteriosclerotic, hypolipaemic, hepatoprotectant

>  <ref>  (678) 
Eur J Pediatr 142:147 (1984); Arch Dis Child 64:1061 (1989); Biochem J 382:831 (2004) 

>  <cas#>  (678) 
590-46-5, 141-58-2 [replaced], 107-43-7 [betaine]

>  <source>  (678) 
widespread in fungi and plants

>  <status>  (678) 
USP

>  <tradename>  (678) 
CYSTADANE

>  <SMILES>  (678) 
C[N+](C)(C)CC(=O)[O-]

>  <standardized_failed>  (678) 
False

$$$$

     RDKit          2D

 16 17  0  0  0  0  0  0  0  0999 V2000
    2.4417    0.5958    0.0000 C   0  0  0  0  0  0  0  0  0  0  0  0
    3.2667    0.5958    0.0000 N   0  0  0  0  0  0  0  0  0  0  0  0
    2.1917   -0.1917    0.0000 N   0  0  0  0  0  0  0  0  0  0  0  0
    3.5292   -0.1917    0.0000 C   0  0  0  0  0  0  0  0  0  0  0  0
    2.8625   -0.6750    0.0000 C   0  0  0  0  0  0  0  0  0  0  0  0
    3.9375   -1.4625    0.0000 S   0  0  0  0  0  0  0  0  0  0  0  0
    4.1917   -0.6750    0.0000 C   0  0  0  0  0  0  0  0  0  0  0  0
    3.1125   -1.4625    0.0000 C   0  0  0  0  0  0  0  0  0  0  0  0
    1.9542    1.2583    0.0000 O   0  0  0  0  0  0  0  0  0  0  0  0
    7.7750   -1.0167    0.0000 C   0  0  0  0  0  0  0  0  0  0  0  0
    7.9500   -0.2125    0.0000 O   0  0  0  0  0  0  0  0  0  0  0  0
    8.3875   -1.5750    0.0000 O   0  0  0  0  0  0  0  0  0  0  0  0
    6.9917   -1.2750    0.0000 C   0  0  0  0  0  0  0  0  0  0  0  0
    4.9792   -0.4167    0.0000 C   0  0  0  0  0  0  0  0  0  0  0  0
    6.3792   -0.7167    0.0000 C   0  0  0  0  0  0  0  0  0  0  0  0
    5.5917   -0.9750    0.0000 C   0  0  0  0  0  0  0  0  0  0  0  0
  2  1  1  0
  3  1  1  0
  4  2  1  0
  5  3  1  0
  6  8  1  0
  7  4  1  0
  8  5  1  0
  9  1  2  0
 10 13  1  0
 11 10  2  0
 12 10  1  0
 13 15  1  0
 14  7  1  0
 15 16  1  0
 16 14  1  0
  5  4  1  0
  7  6  1  0
M  END
>  <ID>  (679) 


>  <MOLENAME>  (679) 
BIOTIN

>  <therap>  (679) 
vitamin B complex

>  <ref>  (679) 
Nutr Rev 33:97 (1975); JACS 98:4024 (1977); Ber 113:607 (1980); Science216:1329 (1982)

>  <cas#>  (679) 
58-85-5

>  <source>  (679) 
Vitamin B complex

>  <status>  (679) 
USP, INN, JAN

>  <tradename>  (679) 
BIOEPIDERM

>  <SMILES>  (679) 
O=C(O)CCCCC1SCC2NC(=O)NC21

>  <standardized_failed>  (679) 
False

$$$$

     RDKit          2D

 13 13  0  0  0  0  0  0  0  0999 V2000
    1.7917    1.9583    0.0000 N   0  0  0  0  0  0  0  0  0  0  0  0
    1.7917   -0.5167    0.0000 C   0  0  0  0  0  0  0  0  0  0  0  0
    2.5042   -0.1042    0.0000 C   0  0  0  0  0  0  0  0  0  0  0  0
    1.7917    1.1333    0.0000 C   0  0  0  0  0  0  0  0  0  0  0  0
    1.7917   -1.3417    0.0000 C   0  0  0  0  0  0  0  0  0  0  0  0
    2.5042    0.7208    0.0000 C   0  0  0  0  0  0  0  0  0  0  0  0
    1.0792   -0.1042    0.0000 C   0  0  0  0  0  0  0  0  0  0  0  0
    2.5042    2.3708    0.0000 O   0  0  0  0  0  0  0  0  0  0  0  0
    1.0792    2.3708    0.0000 O   0  0  0  0  0  0  0  0  0  0  0  0
    1.0792    0.7208    0.0000 C   0  0  0  0  0  0  0  0  0  0  0  0
    1.0792   -1.7542    0.0000 O   0  0  0  0  0  0  0  0  0  0  0  0
    2.5042   -1.7542    0.0000 N   0  0  0  0  0  0  0  0  0  0  0  0
    3.2292   -0.5167    0.0000 Cl  0  0  0  0  0  0  0  0  0  0  0  0
  2  7  2  0
  3  6  2  0
  4  1  1  0
  5  2  1  0
  6  4  1  0
  7 10  1  0
  8  1  1  0
  9  1  2  0
 10  4  2  0
 11  5  2  0
 12  5  1  0
 13  3  1  0
  2  3  1  0
M  CHG  2   1   1   8  -1
M  END
>  <ID>  (680) 


>  <MOLENAME>  (680) 
AKLOMIDE

>  <therap>  (680) 
antiprotozoal, coccidiostat

>  <ref>  (680) 
JACS 75: 4675 (1953); Exp Parasitol 28:25 (1970)

>  <cas#>  (680) 
3011-89-0

>  <source>  (680) 
synthetic

>  <status>  (680) 
USAN, INN, BAN

>  <tradename>  (680) 
NOVASTAT

>  <SMILES>  (680) 
NC(=O)c1ccc([N+](=O)[O-])cc1Cl

>  <standardized_failed>  (680) 
False

$$$$

     RDKit          2D

 18 17  0  0  0  0  0  0  0  0999 V2000
    3.2042   -1.7542    0.0000 C   0  0  0  0  0  0  0  0  0  0  0  0
    2.9417   -1.3000    0.0000 C   0  0  0  0  0  0  0  0  0  0  0  0
    2.9417   -2.2167    0.0000 C   0  0  0  0  0  0  0  0  0  0  0  0
    3.2042   -0.8375    0.0000 C   0  0  0  0  0  0  0  0  0  0  0  0
    2.4000   -2.2167    0.0000 O   0  0  0  0  0  0  0  0  0  0  0  0
    3.7417   -0.8375    0.0000 O   0  0  0  0  0  0  0  0  0  0  0  0
    0.8417   -1.4667    0.0000 N   0  0  0  0  0  0  0  0  0  0  0  0
    3.7417   -1.7542    0.0000 O   0  0  0  0  0  0  0  0  0  0  0  0
    2.4000   -1.3000    0.0000 O   0  0  0  0  0  0  0  0  0  0  0  0
    1.5542   -0.2292    0.0000 C   0  0  0  0  0  0  0  0  0  0  0  0
    2.9417   -0.3792    0.0000 O   0  0  0  0  0  0  0  0  0  0  0  0
    3.2042   -2.6792    0.0000 O   0  0  0  0  0  0  0  0  0  0  0  0
    1.5542   -1.0542    0.0000 C   0  0  0  0  0  0  0  0  0  0  0  0
    2.2542    1.0083    0.0000 O   0  0  0  0  0  0  0  0  0  0  0  0
    2.2667    0.1833    0.0000 C   0  0  0  0  0  0  0  0  0  0  0  0
    0.1250   -1.0542    0.0000 C   0  0  0  0  0  0  0  0  0  0  0  0
    0.8417    0.1833    0.0000 C   0  0  0  0  0  0  0  0  0  0  0  0
    0.1250   -0.2292    0.0000 C   0  0  0  0  0  0  0  0  0  0  0  0
  2  1  1  0
  3  1  1  0
  4  2  1  0
  5  3  2  0
  6  4  2  0
  8  1  1  0
  9  2  1  0
 10 13  1  0
 11  4  1  0
 12  3  1  0
 13  7  2  0
 14 15  1  0
 15 10  1  0
 16  7  1  0
 17 18  1  0
 18 16  2  0
 10 17  2  0
M  END
>  <ID>  (681) 


>  <MOLENAME>  (681) 
NICOTINYL ALCOHOL TARTRATE

>  <therap>  (681) 
vasodilator

>  <ref>  (681) 
Acta Physiol. Hung. (1989), 74(2), 169-74; Experientia (1981), 37(8), 890-2; J. Atheroscler. Res. (1968), 8(2), 265-76

>  <cas#>  (681) 
100-55-0

>  <source>  (681) 
synthetic

>  <status>  (681) 
USAN, JAN

>  <tradename>  (681) 
RONIACOL

>  <SMILES>  (681) 
OCc1cccnc1

>  <standardized_failed>  (681) 
False

$$$$

     RDKit          2D

 17 18  0  0  0  0  0  0  0  0999 V2000
    3.3625   -2.2042    0.0000 N   0  0  0  0  0  0  0  0  0  0  0  0
    4.0750   -1.7917    0.0000 C   0  0  0  0  0  0  0  0  0  0  0  0
    4.0750   -0.9667    0.0000 N   0  0  0  0  0  0  0  0  0  0  0  0
    3.3625   -3.0167    0.0000 C   0  0  0  0  0  0  0  0  0  0  0  0
    2.6417   -1.7917    0.0000 C   0  0  0  0  0  0  0  0  0  0  0  0
    2.6417   -0.9667    0.0000 C   0  0  0  0  0  0  0  0  0  0  0  0
    3.3625   -0.5542    0.0000 C   0  0  0  0  0  0  0  0  0  0  0  0
    2.6917   -3.5000    0.0000 O   0  0  0  0  0  0  0  0  0  0  0  0
    4.0167   -3.5167    0.0000 C   0  0  0  0  0  0  0  0  0  0  0  0
    2.9375   -4.2917    0.0000 C   0  0  0  0  0  0  0  0  0  0  0  0
    3.7542   -4.3000    0.0000 C   0  0  0  0  0  0  0  0  0  0  0  0
    4.7917   -2.2167    0.0000 O   0  0  0  0  0  0  0  0  0  0  0  0
    3.3625    0.2708    0.0000 O   0  0  0  0  0  0  0  0  0  0  0  0
    1.9250   -0.5417    0.0000 F   0  0  0  0  0  0  0  0  0  0  0  0
    4.2417   -4.9667    0.0000 O   0  0  0  0  0  0  0  0  0  0  0  0
    2.4625   -4.9667    0.0000 C   0  0  0  0  0  0  0  0  0  0  0  0
    1.6417   -4.9000    0.0000 O   0  0  0  0  0  0  0  0  0  0  0  0
  2  1  1  0
  3  2  1  0
  4  1  1  0
  5  1  1  0
  6  5  2  0
  7  6  1  0
  8  4  1  0
  9  4  1  0
 10  8  1  0
 11  9  1  0
 12  2  2  0
 13  7  2  0
 14  6  1  0
 11 15  1  1
 10 16  1  1
 17 16  1  0
  3  7  1  0
 10 11  1  0
M  END
>  <ID>  (682) 


>  <MOLENAME>  (682) 
FLOXURIDINE

>  <therap>  (682) 
antineoplastic, antimetabolite

>  <ref>  (682) 
Pharmacol. Ther. (1981), 13(1), 69-90; Biochim. Biophys. Acta (1977), 473(2), 73-92; Cancer Res. (1963), 23, 1226-43

>  <cas#>  (682) 
50-91-9

>  <source>  (682) 
synthetic;FUDR, NSC-27640

>  <status>  (682) 
USP

>  <tradename>  (682) 
nan

>  <SMILES>  (682) 
O=c1[nH]c(=O)n(C2C[C@@H](O)[C@@H](CO)O2)cc1F

>  <standardized_failed>  (682) 
False

$$$$

     RDKit          2D

 15 15  0  0  0  0  0  0  0  0999 V2000
    2.6542   -1.5875    0.0000 N   0  0  0  0  0  0  0  0  0  0  0  0
    4.0750   -1.5875    0.0000 N   0  0  0  0  0  0  0  0  0  0  0  0
    3.3625   -2.8167    0.0000 N   0  0  0  0  0  0  0  0  0  0  0  0
    2.6542   -2.4125    0.0000 C   0  0  0  0  0  0  0  0  0  0  0  0
    4.0750   -2.4125    0.0000 C   0  0  0  0  0  0  0  0  0  0  0  0
    3.3625   -1.1667    0.0000 C   0  0  0  0  0  0  0  0  0  0  0  0
    3.3625   -0.3417    0.0000 N   0  0  0  0  0  0  0  0  0  0  0  0
    4.7917   -2.8250    0.0000 N   0  0  0  0  0  0  0  0  0  0  0  0
    1.9375   -2.8250    0.0000 N   0  0  0  0  0  0  0  0  0  0  0  0
    4.0792    0.0708    0.0000 C   0  0  0  0  0  0  0  0  0  0  0  0
    4.7875   -3.6500    0.0000 C   0  0  0  0  0  0  0  0  0  0  0  0
    5.5042   -2.4125    0.0000 C   0  0  0  0  0  0  0  0  0  0  0  0
    2.6500    0.0708    0.0000 C   0  0  0  0  0  0  0  0  0  0  0  0
    1.2250   -2.4125    0.0000 C   0  0  0  0  0  0  0  0  0  0  0  0
    1.9375   -3.6500    0.0000 C   0  0  0  0  0  0  0  0  0  0  0  0
  2  6  2  0
  3  4  1  0
  4  1  2  0
  5  2  1  0
  6  1  1  0
  7  6  1  0
  8  5  1  0
  9  4  1  0
 10  7  1  0
 11  8  1  0
 12  8  1  0
 13  7  1  0
 14  9  1  0
 15  9  1  0
  3  5  2  0
M  END
>  <ID>  (683) 


>  <MOLENAME>  (683) 
ALTRETAMINE

>  <therap>  (683) 
antineoplastic

>  <ref>  (683) 
Fed Proc 24:641 (1965); Br J Cancer 41:630 (1980)

>  <cas#>  (683) 
645-05-6

>  <source>  (683) 
synthetic

>  <status>  (683) 
USP, INN, BAN

>  <tradename>  (683) 
HEXALEN

>  <SMILES>  (683) 
CN(C)c1nc(N(C)C)nc(N(C)C)n1

>  <standardized_failed>  (683) 
False

$$$$

     RDKit          2D

 14 14  0  0  0  0  0  0  0  0999 V2000
    2.3667   -0.5625    0.0000 C   0  0  0  0  0  0  0  0  0  0  0  0
    2.7792   -1.2750    0.0000 N   0  0  0  0  0  0  0  0  0  0  0  0
    1.5417   -0.5625    0.0000 C   0  0  0  0  0  0  0  0  0  0  0  0
    4.0167   -1.9875    0.0000 C   0  0  0  0  0  0  0  0  0  0  0  0
    2.7750    0.1583    0.0000 O   0  0  0  0  0  0  0  0  0  0  0  0
    3.6042   -2.7000    0.0000 O   0  0  0  0  0  0  0  0  0  0  0  0
    3.6042   -1.2667    0.0000 C   0  0  0  0  0  0  0  0  0  0  0  0
    1.1292    0.1583    0.0000 C   0  0  0  0  0  0  0  0  0  0  0  0
    1.1292   -1.2750    0.0000 C   0  0  0  0  0  0  0  0  0  0  0  0
   -0.1083   -0.5625    0.0000 C   0  0  0  0  0  0  0  0  0  0  0  0
    4.8417   -1.9792    0.0000 O   0  0  0  0  0  0  0  0  0  0  0  0
   -0.9333   -0.5625    0.0000 N   0  0  0  0  0  0  0  0  0  0  0  0
    0.3042   -1.2750    0.0000 C   0  0  0  0  0  0  0  0  0  0  0  0
    0.3042    0.1583    0.0000 C   0  0  0  0  0  0  0  0  0  0  0  0
  2  1  1  0
  3  1  1  0
  4  7  1  0
  5  1  2  0
  6  4  2  0
  7  2  1  0
  8  3  2  0
  9  3  1  0
 10 13  1  0
 11  4  1  0
 12 10  1  0
 13  9  2  0
 14  8  1  0
 14 10  2  0
M  END
>  <ID>  (684) 


>  <MOLENAME>  (684) 
AMINOHIPPURIC ACID

>  <therap>  (684) 
renal function diagnosis

>  <ref>  (684) 
Acta Med Scand 127:471 (1947); Renal Physiol 237:F291 (1979); J Pharmacol Exp Therap  283:1018 (1997)

>  <cas#>  (684) 
61-78-9, 94-16-6 [aminohippurate sodium]

>  <source>  (684) 
synthetic

>  <status>  (684) 
USP

>  <tradename>  (684) 
PAH

>  <SMILES>  (684) 
Nc1ccc(C(=O)NCC(=O)O)cc1

>  <standardized_failed>  (684) 
False

$$$$

     RDKit          2D

 27 28  0  0  0  0  0  0  0  0999 V2000
    1.8667    0.7250    0.0000 C   0  0  0  0  0  0  0  0  0  0  0  0
    2.5875    1.1375    0.0000 N   0  0  0  0  0  0  0  0  0  0  0  0
    1.1625    1.1375    0.0000 C   0  0  0  0  0  0  0  0  0  0  0  0
    2.5792   -0.5125    0.0000 C   0  0  0  0  0  0  0  0  0  0  0  0
    1.1667    1.9625    0.0000 C   0  0  0  0  0  0  0  0  0  0  0  0
    3.3000    0.7208    0.0000 C   0  0  0  0  0  0  0  0  0  0  0  0
    4.0167    1.1250    0.0000 C   0  0  0  0  0  0  0  0  0  0  0  0
    1.8667   -0.0917    0.0000 C   0  0  0  0  0  0  0  0  0  0  0  0
    3.3000   -0.1042    0.0000 C   0  0  0  0  0  0  0  0  0  0  0  0
    2.5750   -1.3375    0.0000 C   0  0  0  0  0  0  0  0  0  0  0  0
    4.0000   -1.3417    0.0000 N   0  0  0  0  0  0  0  0  0  0  0  0
    3.2875   -1.7542    0.0000 C   0  0  0  0  0  0  0  0  0  0  0  0
    0.4500    2.3750    0.0000 F   0  0  0  0  0  0  0  0  0  0  0  0
    1.1625    2.7875    0.0000 F   0  0  0  0  0  0  0  0  0  0  0  0
    1.8792    2.3750    0.0000 F   0  0  0  0  0  0  0  0  0  0  0  0
    4.7292    0.7125    0.0000 F   0  0  0  0  0  0  0  0  0  0  0  0
    4.0167    1.9583    0.0000 F   0  0  0  0  0  0  0  0  0  0  0  0
    4.7292    1.5458    0.0000 F   0  0  0  0  0  0  0  0  0  0  0  0
    0.4542    0.7250    0.0000 C   0  0  0  0  0  0  0  0  0  0  0  0
    1.8542   -1.7500    0.0000 O   0  0  0  0  0  0  0  0  0  0  0  0
    1.1625   -0.5125    0.0000 C   0  0  0  0  0  0  0  0  0  0  0  0
    5.6500   -0.4292    0.0000 Cl  0  0  0  0  0  0  0  0  0  0  0  0
    0.4542   -0.0917    0.0000 C   0  0  0  0  0  0  0  0  0  0  0  0
    4.7125   -1.7625    0.0000 C   0  0  0  0  0  0  0  0  0  0  0  0
    3.2792   -2.5792    0.0000 C   0  0  0  0  0  0  0  0  0  0  0  0
    4.7042   -2.5875    0.0000 C   0  0  0  0  0  0  0  0  0  0  0  0
    3.9875   -3.0000    0.0000 C   0  0  0  0  0  0  0  0  0  0  0  0
  2  1  2  0
  3  1  1  0
  4  8  2  0
  5  3  1  0
  6  2  1  0
  7  6  1  0
  8  1  1  0
  9  4  1  0
 10  4  1  0
 11 12  1  0
 12 10  1  0
 13  5  1  0
 14  5  1  0
 15  5  1  0
 16  7  1  0
 17  7  1  0
 18  7  1  0
 19  3  2  0
 20 10  1  0
 21  8  1  0
 23 21  2  0
 24 11  1  0
 25 12  1  0
 26 27  1  0
 27 25  1  0
 19 23  1  0
  9  6  2  0
 24 26  1  0
M  END
>  <ID>  (685) 


>  <MOLENAME>  (685) 
MEFLOQUINE

>  <therap>  (685) 
antimalarial

>  <ref>  (685) 
Br Med J 315:1412 (1997)

>  <cas#>  (685) 
53230-10-7

>  <source>  (685) 
synthetic; Ro-21-5998; WR-142490

>  <status>  (685) 
USAN, INN, BAN

>  <tradename>  (685) 
LARIAM

>  <SMILES>  (685) 
OC(c1c2cccc(C(F)(F)F)c2nc(C(F)(F)F)c1)C1CCCCN1

>  <standardized_failed>  (685) 
False

$$$$

     RDKit          2D

 24 24  0  0  0  0  0  0  0  0999 V2000
    5.0917   -5.5750    0.0000 C   0  0  0  0  0  0  0  0  0  0  0  0
    4.2667   -5.5750    0.0000 C   0  0  0  0  0  0  0  0  0  0  0  0
    5.5042   -4.8542    0.0000 O   0  0  0  0  0  0  0  0  0  0  0  0
    4.2792   -6.4000    0.0000 C   0  0  0  0  0  0  0  0  0  0  0  0
    4.2667   -4.7500    0.0000 C   0  0  0  0  0  0  0  0  0  0  0  0
    5.5042   -6.2875    0.0000 O   0  0  0  0  0  0  0  0  0  0  0  0
    7.5792   -6.9875    0.0000 N   0  0  0  0  0  0  0  0  0  0  0  0
    7.2625   -5.4000    0.0000 Cl  0  0  0  0  0  0  0  0  0  0  0  0
    6.3292   -6.2792    0.0000 C   0  0  0  0  0  0  0  0  0  0  0  0
    6.7542   -6.9917    0.0000 C   0  0  0  0  0  0  0  0  0  0  0  0
    3.5667   -6.8125    0.0000 C   0  0  0  0  0  0  0  0  0  0  0  0
    4.9917   -4.3375    0.0000 C   0  0  0  0  0  0  0  0  0  0  0  0
    4.9917   -6.8125    0.0000 C   0  0  0  0  0  0  0  0  0  0  0  0
    3.5542   -4.3375    0.0000 C   0  0  0  0  0  0  0  0  0  0  0  0
    7.9917   -7.7000    0.0000 C   0  0  0  0  0  0  0  0  0  0  0  0
    7.9792   -6.2750    0.0000 C   0  0  0  0  0  0  0  0  0  0  0  0
    8.8042   -6.2667    0.0000 C   0  0  0  0  0  0  0  0  0  0  0  0
    8.8167   -7.7000    0.0000 C   0  0  0  0  0  0  0  0  0  0  0  0
    3.5542   -3.5125    0.0000 C   0  0  0  0  0  0  0  0  0  0  0  0
    4.9917   -3.5125    0.0000 C   0  0  0  0  0  0  0  0  0  0  0  0
    4.9917   -7.6375    0.0000 C   0  0  0  0  0  0  0  0  0  0  0  0
    3.5667   -7.6375    0.0000 C   0  0  0  0  0  0  0  0  0  0  0  0
    4.2792   -8.0500    0.0000 C   0  0  0  0  0  0  0  0  0  0  0  0
    4.2667   -3.1000    0.0000 C   0  0  0  0  0  0  0  0  0  0  0  0
  2  1  1  0
  3  1  2  0
  4  2  1  0
  5  2  1  0
  6  1  1  0
  7 10  1  0
  9  6  1  0
 10  9  1  0
 11  4  2  0
 12  5  2  0
 13  4  1  0
 14  5  1  0
 15  7  1  0
 16  7  1  0
 17 16  1  0
 18 15  1  0
 19 14  2  0
 20 12  1  0
 21 13  2  0
 22 11  1  0
 23 21  1  0
 24 20  2  0
 24 19  1  0
 22 23  2  0
M  END
>  <ID>  (686) 


>  <MOLENAME>  (686) 
ADIPHENINE HYDROCHLORIDE

>  <therap>  (686) 
muscle relaxant (smooth)

>  <ref>  (686) 
Eur J Pharmacol 41:53 (1977); Xenobiotica 11:123 (1981)

>  <cas#>  (686) 
50-42-0, 64-95-9 [adiphenine]

>  <source>  (686) 
synthetic

>  <status>  (686) 
USAN, INN

>  <tradename>  (686) 
TRASENTINE

>  <SMILES>  (686) 
CCN(CC)CCOC(=O)C(c1ccccc1)c1ccccc1

>  <standardized_failed>  (686) 
False

$$$$

     RDKit          2D

 33 34  0  0  0  0  0  0  0  0999 V2000
    3.9542   -3.7542    0.0000 N   0  0  0  0  0  0  0  0  0  0  0  0
    4.6667   -3.3417    0.0000 C   0  0  0  0  0  0  0  0  0  0  0  0
    3.9542   -4.5792    0.0000 C   0  0  0  0  0  0  0  0  0  0  0  0
    3.2417   -3.3417    0.0000 C   0  0  0  0  0  0  0  0  0  0  0  0
    3.2375   -4.9917    0.0000 C   0  0  0  0  0  0  0  0  0  0  0  0
    6.0917   -3.3417    0.0000 N   0  0  0  0  0  0  0  0  0  0  0  0
    4.3625   -5.2917    0.0000 C   0  0  0  0  0  0  0  0  0  0  0  0
    5.3792   -3.7542    0.0000 C   0  0  0  0  0  0  0  0  0  0  0  0
    6.8000   -4.5750    0.0000 C   0  0  0  0  0  0  0  0  0  0  0  0
    2.5292   -3.7542    0.0000 C   0  0  0  0  0  0  0  0  0  0  0  0
    2.5250   -4.5792    0.0000 C   0  0  0  0  0  0  0  0  0  0  0  0
    6.8042   -3.7500    0.0000 C   0  0  0  0  0  0  0  0  0  0  0  0
    4.6625   -2.5167    0.0000 O   0  0  0  0  0  0  0  0  0  0  0  0
    3.9417   -6.0042    0.0000 O   0  0  0  0  0  0  0  0  0  0  0  0
    6.2125   -5.1542    0.0000 O   0  0  0  0  0  0  0  0  0  0  0  0
    7.5167   -3.3375    0.0000 C   0  0  0  0  0  0  0  0  0  0  0  0
    5.1542   -5.5042    0.0000 O   0  0  0  0  0  0  0  0  0  0  0  0
    7.5125   -4.9875    0.0000 O   0  0  0  0  0  0  0  0  0  0  0  0
    8.2292   -3.7417    0.0000 C   0  0  0  0  0  0  0  0  0  0  0  0
    6.2292   -1.5625    0.0000 Cl  0  0  0  0  0  0  0  0  0  0  0  0
    8.9417   -3.3292    0.0000 C   0  0  0  0  0  0  0  0  0  0  0  0
    5.3750   -4.5792    0.0000 C   0  0  0  0  0  0  0  0  0  0  0  0
    1.8167   -3.3375    0.0000 C   0  0  0  0  0  0  0  0  0  0  0  0
    1.8167   -4.9875    0.0000 C   0  0  0  0  0  0  0  0  0  0  0  0
    7.5042   -5.8125    0.0000 C   0  0  0  0  0  0  0  0  0  0  0  0
    8.9375   -2.5042    0.0000 C   0  0  0  0  0  0  0  0  0  0  0  0
    9.6542   -3.7417    0.0000 C   0  0  0  0  0  0  0  0  0  0  0  0
    6.7917   -6.2167    0.0000 C   0  0  0  0  0  0  0  0  0  0  0  0
    1.1042   -4.5792    0.0000 C   0  0  0  0  0  0  0  0  0  0  0  0
    1.1042   -3.7542    0.0000 C   0  0  0  0  0  0  0  0  0  0  0  0
   10.3667   -3.3292    0.0000 C   0  0  0  0  0  0  0  0  0  0  0  0
    9.6542   -2.0917    0.0000 C   0  0  0  0  0  0  0  0  0  0  0  0
   10.3667   -2.5042    0.0000 C   0  0  0  0  0  0  0  0  0  0  0  0
  2  1  1  0
  3  1  1  0
  4  1  1  0
  5  3  1  0
  6  8  1  0
  3  7  1  6
  8  2  1  0
 12  9  1  0
 10  4  1  0
 11 10  2  0
 12  6  1  0
 13  2  2  0
 14  7  2  0
 15  9  2  0
 12 16  1  1
 17  7  1  0
 18  9  1  0
 19 16  1  0
 21 19  1  0
  8 22  1  1
 23 10  1  0
 24 11  1  0
 25 18  1  0
 26 21  2  0
 27 21  1  0
 28 25  1  0
 29 30  1  0
 30 23  2  0
 31 27  2  0
 32 26  1  0
 33 32  2  0
 11  5  1  0
 24 29  2  0
 31 33  1  0
M  END
>  <ID>  (687) 


>  <MOLENAME>  (687) 
QUINAPRIL HYDROCHLORIDE

>  <therap>  (687) 
antihypertensive, ACE inhibitor

>  <ref>  (687) 
J Am Soc Nephrol 8:756 (1997); J Clin Endocrinol Metabol 91:1001 (2006) 

>  <cas#>  (687) 
82586-55-8, 85441-61-8 [quinapril]

>  <source>  (687) 
synthetic; CI-906

>  <status>  (687) 
USP, INN, BAN

>  <tradename>  (687) 
ACCUPRIL

>  <SMILES>  (687) 
CCOC(=O)[C@H](CCc1ccccc1)N[C@@H](C)C(=O)N1Cc2c(cccc2)C[C@H]1C(=O)O

>  <standardized_failed>  (687) 
False

$$$$

     RDKit          2D

 12 11  0  0  0  0  0  0  0  0999 V2000
    5.7542   -2.9792    0.0000 P   0  0  0  0  0  0  0  0  0  0  0  0
    5.9667   -2.1792    0.0000 O   0  0  0  0  0  0  0  0  0  0  0  0
    5.0417   -2.5667    0.0000 S   0  0  0  0  0  0  0  0  0  0  0  0
    5.7500   -3.8042    0.0000 O   0  0  0  0  0  0  0  0  0  0  0  0
    6.5500   -3.1917    0.0000 O   0  0  0  0  0  0  0  0  0  0  0  0
    4.3292   -2.9792    0.0000 C   0  0  0  0  0  0  0  0  0  0  0  0
    2.9042   -2.9875    0.0000 N   0  0  0  0  0  0  0  0  0  0  0  0
    0.0542   -2.9917    0.0000 N   0  0  0  0  0  0  0  0  0  0  0  0
    1.4792   -2.9917    0.0000 C   0  0  0  0  0  0  0  0  0  0  0  0
    3.6167   -2.5750    0.0000 C   0  0  0  0  0  0  0  0  0  0  0  0
    2.1917   -2.5792    0.0000 C   0  0  0  0  0  0  0  0  0  0  0  0
    0.7667   -2.5792    0.0000 C   0  0  0  0  0  0  0  0  0  0  0  0
  2  1  2  0
  3  1  1  0
  4  1  1  0
  5  1  1  0
  6  3  1  0
  7 10  1  0
  8 12  1  0
  9 11  1  0
 10  6  1  0
 11  7  1  0
 12  9  1  0
M  END
>  <ID>  (688) 


>  <MOLENAME>  (688) 
AMIFOSTINE

>  <therap>  (688) 
radioprotectant

>  <ref>  (688) 
Drug Metab Dispos 22:895 (1994); Leuk Res 24:1009 (2000); Anticancer Drugs13:181 (2002)

>  <cas#>  (688) 
20537-88-6

>  <source>  (688) 
synthetic; WR-2721

>  <status>  (688) 
USP, INN, BAN

>  <tradename>  (688) 
ETHYOL

>  <SMILES>  (688) 
NCCCNCCSP(=O)(O)O

>  <standardized_failed>  (688) 
False

$$$$

     RDKit          2D

 31 31  0  0  0  0  0  0  0  0999 V2000
    5.0917   -0.5917    0.0000 C   0  0  0  0  0  0  0  0  0  0  0  0
    6.5208   -0.5917    0.0000 C   0  0  0  0  0  0  0  0  0  0  0  0
    5.8042   -1.8333    0.0000 C   0  0  0  0  0  0  0  0  0  0  0  0
    5.8042   -0.1792    0.0000 C   0  0  0  0  0  0  0  0  0  0  0  0
    5.0917   -1.4208    0.0000 C   0  0  0  0  0  0  0  0  0  0  0  0
    6.5208   -1.4208    0.0000 C   0  0  0  0  0  0  0  0  0  0  0  0
    4.3792   -0.1792    0.0000 C   0  0  0  0  0  0  0  0  0  0  0  0
    7.2292   -0.1792    0.0000 C   0  0  0  0  0  0  0  0  0  0  0  0
    5.8042   -2.6542    0.0000 N   0  0  0  0  0  0  0  0  0  0  0  0
    5.0917   -3.0625    0.0000 C   0  0  0  0  0  0  0  0  0  0  0  0
    3.6667   -0.5917    0.0000 N   0  0  0  0  0  0  0  0  0  0  0  0
    7.9417   -0.5875    0.0000 N   0  0  0  0  0  0  0  0  0  0  0  0
    4.3750    0.6458    0.0000 O   0  0  0  0  0  0  0  0  0  0  0  0
    7.2292    0.6458    0.0000 O   0  0  0  0  0  0  0  0  0  0  0  0
    4.3750   -2.6458    0.0000 O   0  0  0  0  0  0  0  0  0  0  0  0
    5.8000    0.6458    0.0000 I   0  0  0  0  0  0  0  0  0  0  0  0
    4.3750   -1.8333    0.0000 I   0  0  0  0  0  0  0  0  0  0  0  0
    7.2375   -1.8333    0.0000 I   0  0  0  0  0  0  0  0  0  0  0  0
    5.0917   -3.8792    0.0000 C   0  0  0  0  0  0  0  0  0  0  0  0
    8.6542   -0.1750    0.0000 C   0  0  0  0  0  0  0  0  0  0  0  0
    2.9542   -0.1875    0.0000 C   0  0  0  0  0  0  0  0  0  0  0  0
    5.8042   -4.2917    0.0000 O   0  0  0  0  0  0  0  0  0  0  0  0
    9.3667    1.0667    0.0000 O   0  0  0  0  0  0  0  0  0  0  0  0
    1.5292   -0.1917    0.0000 O   0  0  0  0  0  0  0  0  0  0  0  0
   10.0792   -0.1667    0.0000 O   0  0  0  0  0  0  0  0  0  0  0  0
    2.2333    1.0500    0.0000 O   0  0  0  0  0  0  0  0  0  0  0  0
    9.3667   -0.5792    0.0000 C   0  0  0  0  0  0  0  0  0  0  0  0
    2.9500    0.6375    0.0000 C   0  0  0  0  0  0  0  0  0  0  0  0
    2.2417   -0.6000    0.0000 C   0  0  0  0  0  0  0  0  0  0  0  0
    8.6542    0.6500    0.0000 C   0  0  0  0  0  0  0  0  0  0  0  0
    4.3750   -4.2917    0.0000 C   0  0  0  0  0  0  0  0  0  0  0  0
  2  4  1  0
  3  5  2  0
  4  1  2  0
  5  1  1  0
  6  3  1  0
  7  1  1  0
  8  2  1  0
  9  3  1  0
 10  9  1  0
 11  7  1  0
 12  8  1  0
 13  7  2  0
 14  8  2  0
 15 10  2  0
 16  4  1  0
 17  5  1  0
 18  6  1  0
 19 10  1  0
 20 12  1  0
 21 11  1  0
 19 22  1  0
 23 30  1  0
 24 29  1  0
 25 27  1  0
 26 28  1  0
 27 20  1  0
 28 21  1  0
 29 21  1  0
 30 20  1  0
 19 31  1  1
  2  6  2  0
M  END
>  <ID>  (689) 


>  <MOLENAME>  (689) 
IOHEXOL

>  <therap>  (689) 
radiopaque diagnostic aid

>  <ref>  (689) 
Clin Radiol 33:231 (1982); Anal Profiles Drug Subst  17:115 (1988)

>  <cas#>  (689) 
66108-95-0

>  <source>  (689) 
synthetic B-15000, SQ-13396

>  <status>  (689) 
USP, INN, BAN, JAN

>  <tradename>  (689) 
OMNIPAQUE

>  <SMILES>  (689) 
C[C@H](O)C(=O)Nc1c(I)c(C(=O)NC(CO)CO)c(I)c(C(=O)NC(CO)CO)c1I

>  <standardized_failed>  (689) 
False

$$$$

     RDKit          2D

 23 22  0  0  0  0  0  0  0  0999 V2000
    3.6250   -6.6375    0.0000 S   0  0  0  0  0  0  0  0  0  0  0  0
    5.0542   -4.9875    0.0000 C   0  0  0  0  0  0  0  0  0  0  0  0
    4.3417   -5.4000    0.0000 C   0  0  0  0  0  0  0  0  0  0  0  0
    4.3417   -6.2250    0.0000 C   0  0  0  0  0  0  0  0  0  0  0  0
    5.0500   -4.1625    0.0000 C   0  0  0  0  0  0  0  0  0  0  0  0
    5.7750   -5.4000    0.0000 C   0  0  0  0  0  0  0  0  0  0  0  0
    3.0375   -7.2250    0.0000 O   0  0  0  0  0  0  0  0  0  0  0  0
    4.2125   -7.2250    0.0000 O   0  0  0  0  0  0  0  0  0  0  0  0
    4.3375   -3.7500    0.0000 O   0  0  0  0  0  0  0  0  0  0  0  0
    5.0542   -6.6375    0.0000 C   0  0  0  0  0  0  0  0  0  0  0  0
    5.7667   -3.7500    0.0000 N   0  0  0  0  0  0  0  0  0  0  0  0
    5.7750   -6.2250    0.0000 C   0  0  0  0  0  0  0  0  0  0  0  0
    3.0625   -6.0375    0.0000 C   0  0  0  0  0  0  0  0  0  0  0  0
    7.9125   -4.1500    0.0000 N   0  0  0  0  0  0  0  0  0  0  0  0
    9.6042   -4.9917    0.0000 Cl  0  0  0  0  0  0  0  0  0  0  0  0
    6.4875   -4.9792    0.0000 O   0  0  0  0  0  0  0  0  0  0  0  0
    6.4792   -4.1542    0.0000 C   0  0  0  0  0  0  0  0  0  0  0  0
    7.2000   -3.7417    0.0000 C   0  0  0  0  0  0  0  0  0  0  0  0
    8.6250   -3.7375    0.0000 C   0  0  0  0  0  0  0  0  0  0  0  0
    7.9125   -4.9750    0.0000 C   0  0  0  0  0  0  0  0  0  0  0  0
    7.2000   -5.3917    0.0000 C   0  0  0  0  0  0  0  0  0  0  0  0
    9.3375   -4.1500    0.0000 C   0  0  0  0  0  0  0  0  0  0  0  0
    8.6292   -5.3875    0.0000 C   0  0  0  0  0  0  0  0  0  0  0  0
  2  3  2  0
  3  4  1  0
  4  1  1  0
  5  2  1  0
  6 12  2  0
  7  1  2  0
  8  1  2  0
  9  5  2  0
 10  4  2  0
 11  5  1  0
 12 10  1  0
 13  1  1  0
 14 18  1  0
 16  6  1  0
 17 11  1  0
 18 17  1  0
 19 14  1  0
 20 14  1  0
 21 16  1  0
 22 19  1  0
 23 20  1  0
  6  2  1  0
M  END
>  <ID>  (690) 


>  <MOLENAME>  (690) 
TIAPRIDE HYDROCHLORIDE

>  <therap>  (690) 
neuroleptic

>  <ref>  (690) 
J Int Med Res 10:160 (1982); Neuropsychobiology 14:17 (1985); Br J Psychiatry 150:164 (1987)

>  <cas#>  (690) 
51012-32-9

>  <source>  (690) 
synthetic; FLC-1374

>  <status>  (690) 
USAN, INN, BAN

>  <tradename>  (690) 
TIAPRIDAL

>  <SMILES>  (690) 
CCN(CC)CCNC(=O)c1cc(S(C)(=O)=O)ccc1OC

>  <standardized_failed>  (690) 
False

$$$$

     RDKit          2D

 33 34  0  0  0  0  0  0  0  0999 V2000
    4.5667   -5.2167    0.0000 N   0  0  0  0  0  0  0  0  0  0  0  0
    4.5667   -6.0417    0.0000 C   0  0  0  0  0  0  0  0  0  0  0  0
    3.7417   -5.2167    0.0000 C   0  0  0  0  0  0  0  0  0  0  0  0
    3.7417   -6.0417    0.0000 C   0  0  0  0  0  0  0  0  0  0  0  0
    5.3542   -4.9667    0.0000 C   0  0  0  0  0  0  0  0  0  0  0  0
    5.3542   -6.3042    0.0000 S   0  0  0  0  0  0  0  0  0  0  0  0
    5.8292   -5.6417    0.0000 C   0  0  0  0  0  0  0  0  0  0  0  0
    5.6042   -4.1792    0.0000 C   0  0  0  0  0  0  0  0  0  0  0  0
    3.1667   -6.6292    0.0000 N   0  0  0  0  0  0  0  0  0  0  0  0
    3.3792   -7.4167    0.0000 C   0  0  0  0  0  0  0  0  0  0  0  0
    6.4042   -4.0042    0.0000 O   0  0  0  0  0  0  0  0  0  0  0  0
    7.4667   -3.0417    0.0000 O   0  0  0  0  0  0  0  0  0  0  0  0
    7.7167   -2.2542    0.0000 C   0  0  0  0  0  0  0  0  0  0  0  0
    4.1667   -7.6167    0.0000 C   0  0  0  0  0  0  0  0  0  0  0  0
    6.6667   -3.2167    0.0000 C   0  0  0  0  0  0  0  0  0  0  0  0
    3.1667   -4.6417    0.0000 O   0  0  0  0  0  0  0  0  0  0  0  0
    5.0542   -3.5667    0.0000 O   0  0  0  0  0  0  0  0  0  0  0  0
    2.7917   -8.0042    0.0000 O   0  0  0  0  0  0  0  0  0  0  0  0
    7.1667   -1.6417    0.0000 O   0  0  0  0  0  0  0  0  0  0  0  0
    4.3792   -8.4167    0.0000 C   0  0  0  0  0  0  0  0  0  0  0  0
    4.7417   -7.0417    0.0000 N   0  0  0  0  0  0  0  0  0  0  0  0
    8.5292   -2.0792    0.0000 O   0  0  0  0  0  0  0  0  0  0  0  0
    6.1792   -4.8792    0.0000 C   0  0  0  0  0  0  0  0  0  0  0  0
    6.6542   -5.5542    0.0000 C   0  0  0  0  0  0  0  0  0  0  0  0
    5.8542   -7.4917    0.0000 Cl  0  0  0  0  0  0  0  0  0  0  0  0
    6.1042   -2.6042    0.0000 C   0  0  0  0  0  0  0  0  0  0  0  0
    5.1667   -8.6292    0.0000 C   0  0  0  0  0  0  0  0  0  0  0  0
    3.8042   -9.0042    0.0000 C   0  0  0  0  0  0  0  0  0  0  0  0
    8.7792   -1.2917    0.0000 C   0  0  0  0  0  0  0  0  0  0  0  0
    9.5792   -1.1167    0.0000 C   0  0  0  0  0  0  0  0  0  0  0  0
    5.3792   -9.4167    0.0000 C   0  0  0  0  0  0  0  0  0  0  0  0
    4.0167   -9.7792    0.0000 C   0  0  0  0  0  0  0  0  0  0  0  0
    4.8167   -9.9917    0.0000 C   0  0  0  0  0  0  0  0  0  0  0  0
  2  1  1  0
  3  1  1  0
  4  3  1  0
  5  1  1  0
  6  2  1  0
  7  5  1  0
  8  5  1  0
  9  4  1  0
 10  9  1  0
 11  8  1  0
 12 15  1  0
 13 12  1  0
 14 10  1  0
 11 15  1  0
 16  3  2  0
 17  8  2  0
 18 10  2  0
 19 13  2  0
 20 14  1  0
 14 21  1  6
 22 13  1  0
 23  7  1  0
 24  7  1  0
 26 15  1  0
 27 20  2  0
 28 20  1  0
 29 22  1  0
 30 29  1  0
 31 27  1  0
 32 28  2  0
 33 31  2  0
  7  6  1  0
  4  2  1  0
 32 33  1  0
M  END
>  <ID>  (691) 


>  <MOLENAME>  (691) 
BACAMPICILLIN HYDROCHLORIDE

>  <therap>  (691) 
antibacterial

>  <ref>  (691) 
Antimicrob Agents Chemother  8:518 (1975); 13:971 (1978)

>  <cas#>  (691) 
37661-08-8, 50972-17-3 [bacampicillin]

>  <source>  (691) 
semisynthetic

>  <status>  (691) 
USP, INN, BAN, JAN

>  <tradename>  (691) 
SPECTROBID

>  <SMILES>  (691) 
CCOC(=O)OC(C)OC(=O)C1N2C(=O)C(NC(=O)[C@H](N)c3ccccc3)C2SC1(C)C

>  <standardized_failed>  (691) 
False

$$$$

     RDKit          2D

 27 29  0  0  0  0  0  0  0  0999 V2000
    1.1292   -1.6167    0.0000 S   0  0  0  0  0  0  0  0  0  0  0  0
    0.4167   -1.2042    0.0000 C   0  0  0  0  0  0  0  0  0  0  0  0
    1.8417   -1.2042    0.0000 N   0  0  0  0  0  0  0  0  0  0  0  0
   -1.7333   -1.6250    0.0000 S   0  0  0  0  0  0  0  0  0  0  0  0
   -1.0125   -0.3792    0.0000 C   0  0  0  0  0  0  0  0  0  0  0  0
   -1.0125   -1.2042    0.0000 C   0  0  0  0  0  0  0  0  0  0  0  0
    0.4167   -0.3792    0.0000 C   0  0  0  0  0  0  0  0  0  0  0  0
   -1.7333    0.0375    0.0000 C   0  0  0  0  0  0  0  0  0  0  0  0
   -0.2958   -1.6167    0.0000 C   0  0  0  0  0  0  0  0  0  0  0  0
    1.1292    0.0333    0.0000 N   0  0  0  0  0  0  0  0  0  0  0  0
    1.8417   -0.3792    0.0000 C   0  0  0  0  0  0  0  0  0  0  0  0
   -0.2958    0.0333    0.0000 C   0  0  0  0  0  0  0  0  0  0  0  0
    1.7417   -2.1750    0.0000 O   0  0  0  0  0  0  0  0  0  0  0  0
    0.5375   -2.2000    0.0000 O   0  0  0  0  0  0  0  0  0  0  0  0
   -2.4583   -2.0417    0.0000 O   0  0  0  0  0  0  0  0  0  0  0  0
   -1.3125   -2.3417    0.0000 O   0  0  0  0  0  0  0  0  0  0  0  0
   -2.1583   -0.9042    0.0000 N   0  0  0  0  0  0  0  0  0  0  0  0
   -1.7333    0.8625    0.0000 F   0  0  0  0  0  0  0  0  0  0  0  0
   -2.4458   -0.3750    0.0000 F   0  0  0  0  0  0  0  0  0  0  0  0
   -2.4458    0.4500    0.0000 F   0  0  0  0  0  0  0  0  0  0  0  0
    2.5667    0.0333    0.0000 C   0  0  0  0  0  0  0  0  0  0  0  0
    2.5667    0.8583    0.0000 C   0  0  0  0  0  0  0  0  0  0  0  0
    1.8542    1.2708    0.0000 C   0  0  0  0  0  0  0  0  0  0  0  0
    3.2875    1.2708    0.0000 C   0  0  0  0  0  0  0  0  0  0  0  0
    1.8542    2.1000    0.0000 C   0  0  0  0  0  0  0  0  0  0  0  0
    3.2875    2.1000    0.0000 C   0  0  0  0  0  0  0  0  0  0  0  0
    2.5667    2.5208    0.0000 C   0  0  0  0  0  0  0  0  0  0  0  0
  2  1  1  0
  3  1  1  0
  4  6  1  0
  5  6  1  0
  6  9  2  0
  7  2  2  0
  8  5  1  0
  9  2  1  0
 10 11  1  0
 11  3  1  0
 12  7  1  0
 13  1  2  0
 14  1  2  0
 15  4  2  0
 16  4  2  0
 17  4  1  0
 18  8  1  0
 19  8  1  0
 20  8  1  0
 21 11  1  0
 22 21  1  0
 23 22  2  0
 24 22  1  0
 25 23  1  0
 26 24  2  0
 27 26  1  0
 10  7  1  0
  5 12  2  0
 27 25  2  0
M  END
>  <ID>  (692) 


>  <MOLENAME>  (692) 
BENDROFLUMETHIAZIDE

>  <therap>  (692) 
diuretic, antihypertensive

>  <ref>  (692) 
Anal Profiles Drug Subs 5:1 (1976)

>  <cas#>  (692) 
73-48-3

>  <source>  (692) 
synthetic

>  <status>  (692) 
USP, INN, BAN, JAN

>  <tradename>  (692) 
NATURETIN

>  <SMILES>  (692) 
NS(=O)(=O)c1cc2c(cc1C(F)(F)F)NC(Cc1ccccc1)NS2(=O)=O

>  <standardized_failed>  (692) 
False

$$$$

     RDKit          2D

 28 29  0  0  0  0  0  0  0  0999 V2000
    5.3625   -4.8417    0.0000 N   0  0  0  0  0  0  0  0  0  0  0  0
    6.1750   -6.2667    0.0000 N   0  0  0  0  0  0  0  0  0  0  0  0
    6.5875   -5.5542    0.0000 C   0  0  0  0  0  0  0  0  0  0  0  0
    5.7667   -5.5542    0.0000 C   0  0  0  0  0  0  0  0  0  0  0  0
    5.7667   -4.1292    0.0000 C   0  0  0  0  0  0  0  0  0  0  0  0
    4.5250   -4.8417    0.0000 C   0  0  0  0  0  0  0  0  0  0  0  0
    7.8250   -6.2667    0.0000 O   0  0  0  0  0  0  0  0  0  0  0  0
    6.5917   -4.1292    0.0000 C   0  0  0  0  0  0  0  0  0  0  0  0
    7.3250   -7.8375    0.0000 Cl  0  0  0  0  0  0  0  0  0  0  0  0
    7.0000   -6.2667    0.0000 C   0  0  0  0  0  0  0  0  0  0  0  0
    6.4250   -7.0542    0.0000 C   0  0  0  0  0  0  0  0  0  0  0  0
    5.3375   -6.2667    0.0000 C   0  0  0  0  0  0  0  0  0  0  0  0
    4.1125   -4.1292    0.0000 C   0  0  0  0  0  0  0  0  0  0  0  0
    4.1125   -5.5542    0.0000 C   0  0  0  0  0  0  0  0  0  0  0  0
    8.2375   -6.9792    0.0000 C   0  0  0  0  0  0  0  0  0  0  0  0
    9.0542   -6.9792    0.0000 C   0  0  0  0  0  0  0  0  0  0  0  0
    7.0042   -3.4167    0.0000 C   0  0  0  0  0  0  0  0  0  0  0  0
    7.0042   -4.8417    0.0000 C   0  0  0  0  0  0  0  0  0  0  0  0
    5.0875   -7.0542    0.0000 C   0  0  0  0  0  0  0  0  0  0  0  0
    5.7542   -7.5292    0.0000 C   0  0  0  0  0  0  0  0  0  0  0  0
    9.4667   -7.6917    0.0000 C   0  0  0  0  0  0  0  0  0  0  0  0
    9.4667   -6.2667    0.0000 C   0  0  0  0  0  0  0  0  0  0  0  0
    3.2875   -4.1292    0.0000 C   0  0  0  0  0  0  0  0  0  0  0  0
    3.2875   -5.5542    0.0000 C   0  0  0  0  0  0  0  0  0  0  0  0
    7.8375   -3.4167    0.0000 C   0  0  0  0  0  0  0  0  0  0  0  0
    7.8375   -4.8417    0.0000 C   0  0  0  0  0  0  0  0  0  0  0  0
    2.8750   -4.8417    0.0000 C   0  0  0  0  0  0  0  0  0  0  0  0
    8.2500   -4.1292    0.0000 C   0  0  0  0  0  0  0  0  0  0  0  0
  2  3  1  0
  3  4  1  0
  4  1  1  0
  5  1  1  0
  6  1  1  0
  7 10  1  0
  8  5  1  0
 10  3  1  0
 11  2  1  0
 12  2  1  0
 13  6  2  0
 14  6  1  0
 15  7  1  0
 16 15  1  0
 17  8  2  0
 18  8  1  0
 19 12  1  0
 20 11  1  0
 21 16  1  0
 22 16  1  0
 23 13  1  0
 24 14  2  0
 25 17  1  0
 26 18  2  0
 27 23  2  0
 28 25  2  0
 24 27  1  0
 26 28  1  0
 20 19  1  0
M  END
>  <ID>  (693) 


>  <MOLENAME>  (693) 
BEPRIDIL HYDROCHLORIDE

>  <therap>  (693) 
antiarrhythmic

>  <ref>  (693) 
Therapie 32:485 (1977); 36:123 (1981); Am J Cardiol 61:1210 (1988)

>  <cas#>  (693) 
74764-40-2

>  <source>  (693) 
synthetic; CERM-1978

>  <status>  (693) 
USAN, INN, BAN, JAN

>  <tradename>  (693) 
BEPADIN

>  <SMILES>  (693) 
CC(C)COCC(CN(Cc1ccccc1)c1ccccc1)N1CCCC1

>  <standardized_failed>  (693) 
False

$$$$

     RDKit          2D

 19 19  0  0  0  0  0  0  0  0999 V2000
    5.5792   -5.2792    0.0000 C   0  0  0  0  0  0  0  0  0  0  0  0
    5.5792   -6.1042    0.0000 C   0  0  0  0  0  0  0  0  0  0  0  0
    4.8667   -6.5167    0.0000 C   0  0  0  0  0  0  0  0  0  0  0  0
    6.3042   -4.8542    0.0000 C   0  0  0  0  0  0  0  0  0  0  0  0
    7.0167   -5.2667    0.0000 N   0  0  0  0  0  0  0  0  0  0  0  0
    4.1542   -6.1042    0.0000 C   0  0  0  0  0  0  0  0  0  0  0  0
    4.8667   -4.8667    0.0000 C   0  0  0  0  0  0  0  0  0  0  0  0
    4.1542   -5.2792    0.0000 C   0  0  0  0  0  0  0  0  0  0  0  0
    7.7292   -4.8542    0.0000 C   0  0  0  0  0  0  0  0  0  0  0  0
    6.3042   -6.5292    0.0000 N   0  0  0  0  0  0  0  0  0  0  0  0
    4.8667   -7.3417    0.0000 Br  0  0  0  0  0  0  0  0  0  0  0  0
    3.4292   -4.8542    0.0000 Br  0  0  0  0  0  0  0  0  0  0  0  0
    8.1375   -6.4917    0.0000 Cl  0  0  0  0  0  0  0  0  0  0  0  0
    7.0292   -6.0917    0.0000 C   0  0  0  0  0  0  0  0  0  0  0  0
    7.7292   -4.0292    0.0000 C   0  0  0  0  0  0  0  0  0  0  0  0
    8.4417   -5.2667    0.0000 C   0  0  0  0  0  0  0  0  0  0  0  0
    9.1667   -4.8542    0.0000 C   0  0  0  0  0  0  0  0  0  0  0  0
    8.4417   -3.6167    0.0000 C   0  0  0  0  0  0  0  0  0  0  0  0
    9.1667   -4.0292    0.0000 C   0  0  0  0  0  0  0  0  0  0  0  0
  2  1  2  0
  3  2  1  0
  4  1  1  0
  5  4  1  0
  6  8  1  0
  7  1  1  0
  8  7  2  0
  9  5  1  0
 10  2  1  0
 11  3  1  0
 12  8  1  0
 14  5  1  0
 15  9  1  0
 16  9  1  0
 17 16  1  0
 18 15  1  0
 19 18  1  0
  6  3  2  0
 17 19  1  0
M  END
>  <ID>  (694) 


>  <MOLENAME>  (694) 
BROMHEXINE HYDROCHLORIDE

>  <therap>  (694) 
expectorant

>  <ref>  (694) 
Arch Int Pharmacodyn Ther 163:284 (1966)

>  <cas#>  (694) 
611-75-6, 3572-43-8 [bromhexine]

>  <source>  (694) 
synthetic

>  <status>  (694) 
USAN, INN, BAN, JAN

>  <tradename>  (694) 
BISOLVON

>  <SMILES>  (694) 
CN(Cc1c(N)c(Br)cc(Br)c1)C1CCCCC1

>  <standardized_failed>  (694) 
False

$$$$

     RDKit          2D

 12 11  0  0  0  0  0  0  0  0999 V2000
   -0.0458   -1.3000    0.0000 N   0  0  0  0  0  0  0  0  0  0  0  0
   -0.8708   -1.3000    0.0000 C   0  0  0  0  0  0  0  0  0  0  0  0
    0.3667   -2.0167    0.0000 N   0  0  0  0  0  0  0  0  0  0  0  0
   -1.2833   -2.0167    0.0000 O   0  0  0  0  0  0  0  0  0  0  0  0
   -0.0458   -2.7292    0.0000 O   0  0  0  0  0  0  0  0  0  0  0  0
   -1.2833   -0.5875    0.0000 N   0  0  0  0  0  0  0  0  0  0  0  0
    0.3667   -0.5875    0.0000 C   0  0  0  0  0  0  0  0  0  0  0  0
    0.3667    0.8458    0.0000 Cl  0  0  0  0  0  0  0  0  0  0  0  0
   -3.3458    0.1250    0.0000 Cl  0  0  0  0  0  0  0  0  0  0  0  0
   -0.0458    0.1250    0.0000 C   0  0  0  0  0  0  0  0  0  0  0  0
   -2.1083   -0.5875    0.0000 C   0  0  0  0  0  0  0  0  0  0  0  0
   -2.5208    0.1250    0.0000 C   0  0  0  0  0  0  0  0  0  0  0  0
  2  1  1  0
  3  1  1  0
  4  2  2  0
  5  3  2  0
  6  2  1  0
  7  1  1  0
  8 10  1  0
  9 12  1  0
 10  7  1  0
 11  6  1  0
 12 11  1  0
M  END
>  <ID>  (695) 


>  <MOLENAME>  (695) 
CARMUSTINE

>  <therap>  (695) 
antineoplastic, alkylating agent

>  <ref>  (695) 
Toxicol Appl Pharmacol 21: 405 (1972)

>  <cas#>  (695) 
154-93-8

>  <source>  (695) 
synthetic

>  <status>  (695) 
USAN, INN, BAN

>  <tradename>  (695) 
GLIADEL

>  <SMILES>  (695) 
O=NN(CCCl)C(=O)NCCCl

>  <standardized_failed>  (695) 
False

$$$$

     RDKit          2D

 41 39  0  0  0  0  0  0  0  0999 V2000
    5.3750   -3.3542    0.0000 N   0  0  0  0  0  0  0  0  0  0  0  0
    4.5542   -3.3667    0.0000 C   0  0  0  0  0  0  0  0  0  0  0  0
    4.5542   -4.1917    0.0000 C   0  0  0  0  0  0  0  0  0  0  0  0
    5.3792   -4.1875    0.0000 C   0  0  0  0  0  0  0  0  0  0  0  0
    8.9417   -2.1042    0.0000 N   0  0  0  0  0  0  0  0  0  0  0  0
   10.3750   -2.1000    0.0000 C   0  0  0  0  0  0  0  0  0  0  0  0
    8.9500   -2.9292    0.0000 C   0  0  0  0  0  0  0  0  0  0  0  0
    6.0875   -2.9417    0.0000 C   0  0  0  0  0  0  0  0  0  0  0  0
   10.3750   -2.9250    0.0000 N   0  0  0  0  0  0  0  0  0  0  0  0
    1.7000   -4.1792    0.0000 C   0  0  0  0  0  0  0  0  0  0  0  0
    9.6542   -1.6917    0.0000 C   0  0  0  0  0  0  0  0  0  0  0  0
    2.4125   -4.6000    0.0000 C   0  0  0  0  0  0  0  0  0  0  0  0
    9.6625   -3.3375    0.0000 N   0  0  0  0  0  0  0  0  0  0  0  0
    0.9167   -4.4417    0.0000 N   0  0  0  0  0  0  0  0  0  0  0  0
    3.8417   -4.6042    0.0000 N   0  0  0  0  0  0  0  0  0  0  0  0
    3.1292   -4.1917    0.0000 C   0  0  0  0  0  0  0  0  0  0  0  0
    6.1000   -4.6000    0.0000 S   0  0  0  0  0  0  0  0  0  0  0  0
    6.8042   -3.3500    0.0000 C   0  0  0  0  0  0  0  0  0  0  0  0
    0.4250   -3.7750    0.0000 C   0  0  0  0  0  0  0  0  0  0  0  0
    6.0792   -2.1167    0.0000 C   0  0  0  0  0  0  0  0  0  0  0  0
    1.6917   -3.3542    0.0000 C   0  0  0  0  0  0  0  0  0  0  0  0
    0.9042   -3.1042    0.0000 S   0  0  0  0  0  0  0  0  0  0  0  0
    8.2375   -3.3417    0.0000 S   0  0  0  0  0  0  0  0  0  0  0  0
    6.8125   -4.1792    0.0000 C   0  0  0  0  0  0  0  0  0  0  0  0
    2.4042   -5.4250    0.0000 N   0  0  0  0  0  0  0  0  0  0  0  0
    3.9667   -2.7875    0.0000 O   0  0  0  0  0  0  0  0  0  0  0  0
   11.0875   -1.6875    0.0000 O   0  0  0  0  0  0  0  0  0  0  0  0
    7.5167   -2.9292    0.0000 C   0  0  0  0  0  0  0  0  0  0  0  0
    3.1292   -3.3667    0.0000 O   0  0  0  0  0  0  0  0  0  0  0  0
    9.6542   -0.8667    0.0000 O   0  0  0  0  0  0  0  0  0  0  0  0
    6.7917   -1.7000    0.0000 O   0  0  0  0  0  0  0  0  0  0  0  0
    5.3667   -1.7125    0.0000 O   0  0  0  0  0  0  0  0  0  0  0  0
   -0.4000   -3.7792    0.0000 N   0  0  0  0  0  0  0  0  0  0  0  0
    9.6667   -4.1625    0.0000 C   0  0  0  0  0  0  0  0  0  0  0  0
    1.6792   -5.8292    0.0000 O   0  0  0  0  0  0  0  0  0  0  0  0
   11.4125   -2.6917    0.0000 Na  0  0  0  0  0 15  0  0  0  0  0  0
    6.0667   -0.7875    0.0000 Na  0  0  0  0  0 15  0  0  0  0  0  0
   11.3667   -3.9292    0.0000 O   0  0  0  0  0  0  0  0  0  0  0  0
    3.8042   -1.2417    0.0000 O   0  0  0  0  0  0  0  0  0  0  0  0
   -0.6875   -5.3042    0.0000 O   0  0  0  0  0  0  0  0  0  0  0  0
    1.6750   -6.6542    0.0000 C   0  0  0  0  0  0  0  0  0  0  0  0
  2  1  1  0
  3  4  1  0
  4  1  1  0
  5  7  2  0
  6  9  2  0
  7 23  1  0
  8  1  1  0
  9 13  1  0
 10 12  1  0
 11  5  1  0
 12 16  1  0
 13  7  1  0
 14 10  1  0
  3 15  1  6
 16 15  1  0
  4 17  1  6
 18  8  2  0
 19 14  2  0
 20  8  1  0
 21 10  2  0
 22 21  1  0
 23 28  1  0
 24 18  1  0
 25 12  2  0
 26  2  2  0
 27  6  1  0
 28 18  1  0
 29 16  2  0
 30 11  2  0
 31 20  1  0
 32 20  2  0
 33 19  1  0
 34 13  1  0
 35 25  1  0
 41 35  1  0
  3  2  1  0
 17 24  1  0
  6 11  1  0
 19 22  1  0
M  CHG  4  27  -1  31  -1  36   1  37   1
M  END
>  <ID>  (696) 


>  <MOLENAME>  (696) 
CEFTRIAXONE SODIUM TRIHYDRATE

>  <therap>  (696) 
antibacterial

>  <ref>  (696) 
Drugs 27:469 (1984); Pharmacotherapy 5:237 (1985)

>  <cas#>  (696) 
104376-79-6, 73384-59-5 [ceftriaxone]

>  <source>  (696) 
semisynthetic; RO-13-9904

>  <status>  (696) 
USP, INN, BAN, JAN

>  <tradename>  (696) 
ROCEPHIN

>  <SMILES>  (696) 
CO/N=C(/C(=O)N[C@@H]1C(=O)N2C(C(=O)O)=C(CSc3nc(=O)c(O)nn3C)CS[C@H]12)c1csc(N)n1

>  <standardized_failed>  (696) 
False

$$$$

     RDKit          2D

 30 31  0  0  0  0  0  0  0  0999 V2000
    5.8917   -4.6667    0.0000 N   0  0  0  0  0  0  0  0  0  0  0  0
    5.4042   -4.1792    0.0000 C   0  0  0  0  0  0  0  0  0  0  0  0
    6.6917   -4.5417    0.0000 C   0  0  0  0  0  0  0  0  0  0  0  0
    5.6417   -5.4542    0.0000 C   0  0  0  0  0  0  0  0  0  0  0  0
    9.8292   -6.7542    0.0000 C   0  0  0  0  0  0  0  0  0  0  0  0
    9.8292   -5.3917    0.0000 C   0  0  0  0  0  0  0  0  0  0  0  0
    9.2500   -5.7375    0.0000 C   0  0  0  0  0  0  0  0  0  0  0  0
    9.2500   -6.4167    0.0000 C   0  0  0  0  0  0  0  0  0  0  0  0
    5.4042   -3.3542    0.0000 C   0  0  0  0  0  0  0  0  0  0  0  0
    7.0667   -3.7917    0.0000 C   0  0  0  0  0  0  0  0  0  0  0  0
    6.1917   -6.0667    0.0000 C   0  0  0  0  0  0  0  0  0  0  0  0
   10.4167   -6.4167    0.0000 O   0  0  0  0  0  0  0  0  0  0  0  0
    9.8292   -4.7125    0.0000 O   0  0  0  0  0  0  0  0  0  0  0  0
    6.7167   -3.0167    0.0000 C   0  0  0  0  0  0  0  0  0  0  0  0
    5.9167   -2.8667    0.0000 C   0  0  0  0  0  0  0  0  0  0  0  0
    5.9417   -6.8417    0.0000 C   0  0  0  0  0  0  0  0  0  0  0  0
    6.5042   -7.4542    0.0000 N   0  0  0  0  0  0  0  0  0  0  0  0
   10.4167   -5.7375    0.0000 O   0  0  0  0  0  0  0  0  0  0  0  0
    9.8292   -7.4292    0.0000 O   0  0  0  0  0  0  0  0  0  0  0  0
    4.6917   -4.5917    0.0000 C   0  0  0  0  0  0  0  0  0  0  0  0
    7.1417   -5.2417    0.0000 C   0  0  0  0  0  0  0  0  0  0  0  0
    4.6917   -2.9417    0.0000 C   0  0  0  0  0  0  0  0  0  0  0  0
    7.9042   -3.7542    0.0000 C   0  0  0  0  0  0  0  0  0  0  0  0
    7.0167   -6.0667    0.0000 C   0  0  0  0  0  0  0  0  0  0  0  0
    6.2417   -8.2417    0.0000 C   0  0  0  0  0  0  0  0  0  0  0  0
    7.3042   -7.2792    0.0000 C   0  0  0  0  0  0  0  0  0  0  0  0
    7.9792   -5.2042    0.0000 C   0  0  0  0  0  0  0  0  0  0  0  0
    3.9792   -4.1792    0.0000 C   0  0  0  0  0  0  0  0  0  0  0  0
    8.3667   -4.4542    0.0000 C   0  0  0  0  0  0  0  0  0  0  0  0
    3.9792   -3.3542    0.0000 C   0  0  0  0  0  0  0  0  0  0  0  0
  2  1  1  0
  3  1  1  0
  4  1  1  0
  6  7  1  0
  7  8  2  0
  8  5  1  0
  9  2  2  0
 10  3  2  0
 11  4  1  0
 12  5  2  0
 13  6  2  0
 14 10  1  0
 15  9  1  0
 16 11  1  0
 17 16  1  0
 18  6  1  0
 19  5  1  0
 20  2  1  0
 21  3  1  0
 22  9  1  0
 23 10  1  0
 24 11  1  0
 25 17  1  0
 26 17  1  0
 27 21  2  0
 28 20  2  0
 29 23  2  0
 30 22  2  0
 14 15  1  0
 27 29  1  0
 28 30  1  0
M  END
>  <ID>  (697) 


>  <MOLENAME>  (697) 
TRIMIPRAMINE MALEATE

>  <therap>  (697) 
antidepressant

>  <ref>  (697) 
CA 72:77299y (1970); Anla Profiles Drug Subs 12:683 (1983)

>  <cas#>  (697) 
521-78-8, 739-71-9 [trimipramine]

>  <source>  (697) 
synthetic; RP-7162

>  <status>  (697) 
USAN, JAN

>  <tradename>  (697) 
SURMONTIL

>  <SMILES>  (697) 
CC(CN(C)C)CN1c2c(cccc2)CCc2c1cccc2

>  <standardized_failed>  (697) 
False

$$$$

     RDKit          2D

 25 26  0  0  0  0  0  0  0  0999 V2000
    2.5042    0.0250    0.0000 N   0  0  0  0  0  0  0  0  0  0  0  0
    3.3000    0.2375    0.0000 C   0  0  0  0  0  0  0  0  0  0  0  0
    2.9500    1.6083    0.0000 S   0  0  0  0  0  0  0  0  0  0  0  0
    5.2375   -0.7417    0.0000 C   0  0  0  0  0  0  0  0  0  0  0  0
    3.5125    1.0375    0.0000 C   0  0  0  0  0  0  0  0  0  0  0  0
    1.9375    0.6083    0.0000 C   0  0  0  0  0  0  0  0  0  0  0  0
    2.1500    1.3875    0.0000 C   0  0  0  0  0  0  0  0  0  0  0  0
    3.8750   -0.3500    0.0000 C   0  0  0  0  0  0  0  0  0  0  0  0
    4.6667   -0.1500    0.0000 C   0  0  0  0  0  0  0  0  0  0  0  0
    4.3125    1.2750    0.0000 C   0  0  0  0  0  0  0  0  0  0  0  0
    4.8917    0.6375    0.0000 C   0  0  0  0  0  0  0  0  0  0  0  0
    4.6500   -1.3125    0.0000 F   0  0  0  0  0  0  0  0  0  0  0  0
    5.8125   -1.3375    0.0000 F   0  0  0  0  0  0  0  0  0  0  0  0
    5.8292   -0.1750    0.0000 F   0  0  0  0  0  0  0  0  0  0  0  0
    2.3000   -0.7750    0.0000 C   0  0  0  0  0  0  0  0  0  0  0  0
    1.5000   -0.9917    0.0000 C   0  0  0  0  0  0  0  0  0  0  0  0
    0.4917   -2.0125    0.0000 N   0  0  0  0  0  0  0  0  0  0  0  0
    2.5542   -2.4917    0.0000 Cl  0  0  0  0  0  0  0  0  0  0  0  0
    1.1542    0.4000    0.0000 C   0  0  0  0  0  0  0  0  0  0  0  0
    1.5750    1.9625    0.0000 C   0  0  0  0  0  0  0  0  0  0  0  0
    1.2875   -1.7917    0.0000 C   0  0  0  0  0  0  0  0  0  0  0  0
    0.2875   -2.8000    0.0000 C   0  0  0  0  0  0  0  0  0  0  0  0
   -0.0875   -1.4292    0.0000 C   0  0  0  0  0  0  0  0  0  0  0  0
    0.5792    0.9750    0.0000 C   0  0  0  0  0  0  0  0  0  0  0  0
    0.8000    1.7625    0.0000 C   0  0  0  0  0  0  0  0  0  0  0  0
  2  1  1  0
  3  7  1  0
  4  9  1  0
  5  2  2  0
  6  1  1  0
  7  6  2  0
  8  2  1  0
  9  8  2  0
 10  5  1  0
 11  9  1  0
 12  4  1  0
 13  4  1  0
 14  4  1  0
 15  1  1  0
 16 15  1  0
 17 21  1  0
 19  6  1  0
 20  7  1  0
 21 16  1  0
 22 17  1  0
 23 17  1  0
 24 19  2  0
 25 24  1  0
  5  3  1  0
 25 20  2  0
 11 10  2  0
M  END
>  <ID>  (698) 


>  <MOLENAME>  (698) 
TRIFLUPROMAZINE HYDROCHLORIDE

>  <therap>  (698) 
antipsychotic

>  <ref>  (698) 
Anal Profiles Drug Subs 2:523 (1973)

>  <cas#>  (698) 
1098-60-8, 146-54-3 [triflupromazine]

>  <source>  (698) 
synthetic

>  <status>  (698) 
USP, INN, BAN

>  <tradename>  (698) 
VESPRIN

>  <SMILES>  (698) 
CN(C)CCCN1c2c(cccc2)Sc2c1cc(C(F)(F)F)cc2

>  <standardized_failed>  (698) 
False

$$$$

     RDKit          2D

 27 29  0  0  0  0  0  0  0  0999 V2000
    1.7042   -2.3417    0.0000 N   0  0  0  0  0  0  0  0  0  0  0  0
    2.4875   -2.5917    0.0000 C   0  0  0  0  0  0  0  0  0  0  0  0
    1.7000   -1.5250    0.0000 C   0  0  0  0  0  0  0  0  0  0  0  0
    2.4792   -1.2667    0.0000 N   0  0  0  0  0  0  0  0  0  0  0  0
    2.9667   -1.9250    0.0000 N   0  0  0  0  0  0  0  0  0  0  0  0
    6.2542   -4.7667    0.0000 N   0  0  0  0  0  0  0  0  0  0  0  0
    6.6625   -5.4792    0.0000 C   0  0  0  0  0  0  0  0  0  0  0  0
    0.9875   -2.7542    0.0000 C   0  0  0  0  0  0  0  0  0  0  0  0
    5.4292   -3.3500    0.0000 N   0  0  0  0  0  0  0  0  0  0  0  0
    2.7417   -3.3792    0.0000 O   0  0  0  0  0  0  0  0  0  0  0  0
    7.4875   -5.4750    0.0000 C   0  0  0  0  0  0  0  0  0  0  0  0
    0.9875   -1.1042    0.0000 C   0  0  0  0  0  0  0  0  0  0  0  0
    6.6667   -4.0542    0.0000 C   0  0  0  0  0  0  0  0  0  0  0  0
    5.4292   -4.7667    0.0000 C   0  0  0  0  0  0  0  0  0  0  0  0
    0.2792   -2.3500    0.0000 C   0  0  0  0  0  0  0  0  0  0  0  0
    0.2792   -1.5250    0.0000 C   0  0  0  0  0  0  0  0  0  0  0  0
    3.7875   -1.9250    0.0000 C   0  0  0  0  0  0  0  0  0  0  0  0
    6.2542   -3.3500    0.0000 C   0  0  0  0  0  0  0  0  0  0  0  0
    5.0250   -4.0542    0.0000 C   0  0  0  0  0  0  0  0  0  0  0  0
    7.8917   -6.1917    0.0000 C   0  0  0  0  0  0  0  0  0  0  0  0
    4.2000   -2.6375    0.0000 C   0  0  0  0  0  0  0  0  0  0  0  0
    5.0167   -2.6375    0.0000 C   0  0  0  0  0  0  0  0  0  0  0  0
    8.7167   -6.1917    0.0000 Cl  0  0  0  0  0  0  0  0  0  0  0  0
    2.7417   -5.2375    0.0000 Cl  0  0  0  0  0  0  0  0  0  0  0  0
    6.2417   -6.1875    0.0000 C   0  0  0  0  0  0  0  0  0  0  0  0
    6.6542   -6.9000    0.0000 C   0  0  0  0  0  0  0  0  0  0  0  0
    7.4792   -6.9042    0.0000 C   0  0  0  0  0  0  0  0  0  0  0  0
  2  1  1  0
  3  1  1  0
  4  3  2  0
  5  2  1  0
  6 14  1  0
  7  6  1  0
  8  1  1  0
  9 22  1  0
 10  2  2  0
 11  7  2  0
 12  3  1  0
 13 18  1  0
 14 19  1  0
 15  8  2  0
 16 15  1  0
 17  5  1  0
 18  9  1  0
 19  9  1  0
 20 11  1  0
 21 17  1  0
 22 21  1  0
 23 20  1  0
 25  7  1  0
 26 25  2  0
 27 26  1  0
  5  4  1  0
 12 16  2  0
  6 13  1  0
 20 27  2  0
M  END
>  <ID>  (699) 


>  <MOLENAME>  (699) 
TRAZODONE HYDROCHLORIDE

>  <therap>  (699) 
antidepressant

>  <ref>  (699) 
Drugs 21:401 (1981); Psychopharmacol 95 Suppl:1 (1988); J Clin Psychiatry 66:469 (2005)

>  <cas#>  (699) 
25332-39-2, 19794-93-5 [trazodone]

>  <source>  (699) 
synthetic; AF-1160

>  <status>  (699) 
USP, INN, BAN, JAN

>  <tradename>  (699) 
DESYREL

>  <SMILES>  (699) 
O=c1n(CCCN2CCN(c3cc(Cl)ccc3)CC2)nc2ccccn12

>  <standardized_failed>  (699) 
False

$$$$

     RDKit          2D

 23 25  0  0  0  0  0  0  0  0999 V2000
    4.8000   -1.8292    0.0000 C   0  0  0  0  0  0  0  0  0  0  0  0
    5.5500   -1.4917    0.0000 C   0  0  0  0  0  0  0  0  0  0  0  0
    4.8792   -2.6500    0.0000 C   0  0  0  0  0  0  0  0  0  0  0  0
    6.1042   -2.1042    0.0000 C   0  0  0  0  0  0  0  0  0  0  0  0
    1.9417   -0.1792    0.0000 S   0  0  0  0  0  0  0  0  0  0  0  0
    5.6917   -2.8167    0.0000 O   0  0  0  0  0  0  0  0  0  0  0  0
    5.7167   -0.6875    0.0000 O   0  0  0  0  0  0  0  0  0  0  0  0
    4.0792   -1.4167    0.0000 C   0  0  0  0  0  0  0  0  0  0  0  0
    2.6542   -0.5917    0.0000 C   0  0  0  0  0  0  0  0  0  0  0  0
    2.3500    0.5333    0.0000 O   0  0  0  0  0  0  0  0  0  0  0  0
    1.5250   -0.8917    0.0000 O   0  0  0  0  0  0  0  0  0  0  0  0
    6.6667    0.3833    0.0000 C   0  0  0  0  0  0  0  0  0  0  0  0
    7.2167    0.9958    0.0000 C   0  0  0  0  0  0  0  0  0  0  0  0
    6.4125    1.1625    0.0000 C   0  0  0  0  0  0  0  0  0  0  0  0
    6.9167   -2.0167    0.0000 O   0  0  0  0  0  0  0  0  0  0  0  0
    3.3667   -0.1792    0.0000 C   0  0  0  0  0  0  0  0  0  0  0  0
    2.6542   -1.4167    0.0000 C   0  0  0  0  0  0  0  0  0  0  0  0
    3.3667   -1.8292    0.0000 C   0  0  0  0  0  0  0  0  0  0  0  0
    4.0792   -0.5917    0.0000 C   0  0  0  0  0  0  0  0  0  0  0  0
    6.5000   -0.4292    0.0000 C   0  0  0  0  0  0  0  0  0  0  0  0
    1.2250    0.2333    0.0000 C   0  0  0  0  0  0  0  0  0  0  0  0
    4.8792   -3.4750    0.0000 C   0  0  0  0  0  0  0  0  0  0  0  0
    4.0542   -2.6500    0.0000 C   0  0  0  0  0  0  0  0  0  0  0  0
  2  1  2  0
  3  1  1  0
  4  2  1  0
  5  9  1  0
  6  3  1  0
  7  2  1  0
  8  1  1  0
  9 16  2  0
 10  5  2  0
 11  5  2  0
 12 20  1  0
 13 12  1  0
 14 12  1  0
 15  4  2  0
 16 19  1  0
 17 18  2  0
 18  8  1  0
 19  8  2  0
 20  7  1  0
 21  5  1  0
 22  3  1  0
 23  3  1  0
  6  4  1  0
  9 17  1  0
 14 13  1  0
M  END
>  <ID>  (700) 


>  <MOLENAME>  (700) 
FIROCOXIB

>  <therap>  (700) 
analgesic, antiinflammatory, antipyretic, COX-II inhibitor

>  <ref>  (700) 
Am J Vet Res 65:503 (2004)

>  <cas#>  (700) 
189954-96-9

>  <source>  (700) 
synthetic; ML-1785713

>  <status>  (700) 
USAN, INN

>  <tradename>  (700) 
EQIOXX

>  <SMILES>  (700) 
CC1(C)OC(=O)C(OCC2CC2)=C1c1ccc(S(C)(=O)=O)cc1

>  <standardized_failed>  (700) 
False

$$$$

     RDKit          2D

 22 22  0  0  0  0  0  0  0  0999 V2000
    2.7250   -2.4000    0.0000 C   0  0  0  0  0  0  0  0  0  0  0  0
    3.1375   -1.6875    0.0000 N   0  0  0  0  0  0  0  0  0  0  0  0
    1.8917   -2.4000    0.0000 N   0  0  0  0  0  0  0  0  0  0  0  0
    3.1292   -3.1125    0.0000 N   0  0  0  0  0  0  0  0  0  0  0  0
    2.7250   -0.9750    0.0000 C   0  0  0  0  0  0  0  0  0  0  0  0
    3.9542   -1.6875    0.0000 C   0  0  0  0  0  0  0  0  0  0  0  0
    1.9042   -0.9750    0.0000 C   0  0  0  0  0  0  0  0  0  0  0  0
    5.1917   -2.4000    0.0000 N   0  0  0  0  0  0  0  0  0  0  0  0
    4.3667   -2.4000    0.0000 C   0  0  0  0  0  0  0  0  0  0  0  0
    0.2542   -0.9750    0.0000 C   0  0  0  0  0  0  0  0  0  0  0  0
    7.3875   -2.2792    0.0000 Cl  0  0  0  0  0  0  0  0  0  0  0  0
    1.4917   -1.6875    0.0000 C   0  0  0  0  0  0  0  0  0  0  0  0
    1.4917   -0.2542    0.0000 C   0  0  0  0  0  0  0  0  0  0  0  0
    0.6667   -1.6875    0.0000 C   0  0  0  0  0  0  0  0  0  0  0  0
    0.6667   -0.2542    0.0000 C   0  0  0  0  0  0  0  0  0  0  0  0
    1.8917   -3.8250    0.0000 C   0  0  0  0  0  0  0  0  0  0  0  0
   -0.5708   -0.9750    0.0000 O   0  0  0  0  0  0  0  0  0  0  0  0
    2.7167   -3.8250    0.0000 C   0  0  0  0  0  0  0  0  0  0  0  0
    1.4792   -3.1042    0.0000 C   0  0  0  0  0  0  0  0  0  0  0  0
    5.6042   -1.6792    0.0000 C   0  0  0  0  0  0  0  0  0  0  0  0
    5.6042   -3.1125    0.0000 C   0  0  0  0  0  0  0  0  0  0  0  0
   -0.9833   -0.2625    0.0000 C   0  0  0  0  0  0  0  0  0  0  0  0
  2  1  1  0
  3  1  2  0
  4  1  1  0
  5  2  1  0
  6  2  1  0
  7  5  1  0
  8  9  1  0
  9  6  1  0
 10 14  2  0
 12  7  2  0
 13  7  1  0
 14 12  1  0
 15 13  2  0
 16 18  1  0
 17 10  1  0
 18  4  2  0
 19  3  1  0
 20  8  1  0
 21  8  1  0
 22 17  1  0
 19 16  2  0
 15 10  1  0
M  END
>  <ID>  (701) 


>  <MOLENAME>  (701) 
THONZYLAMINE HYDROCHLORIDE

>  <therap>  (701) 
antihistamine

>  <ref>  (701) 
Proc Soc Exp Biol Med 66:512 (1947)

>  <cas#>  (701) 
63-56-9, 91-85-0 [thonzylamine]

>  <source>  (701) 
synthetic; NC-1264

>  <status>  (701) 
USAN, INN, BAN

>  <tradename>  (701) 
ANAHIST

>  <SMILES>  (701) 
COc1ccc(CN(CCN(C)C)c2ncccn2)cc1

>  <standardized_failed>  (701) 
False

$$$$

     RDKit          2D

 21 21  0  0  0  0  0  0  0  0999 V2000
   -1.0208   -1.1875    0.0000 S   0  0  0  0  0  0  0  0  0  0  0  0
    3.9375    0.2458    0.0000 C   0  0  0  0  0  0  0  0  0  0  0  0
    3.5250   -0.4667    0.0000 N   0  0  0  0  0  0  0  0  0  0  0  0
    2.6917   -0.4667    0.0000 C   0  0  0  0  0  0  0  0  0  0  0  0
   -0.1958   -1.1875    0.0000 C   0  0  0  0  0  0  0  0  0  0  0  0
    3.5250    0.9583    0.0000 C   0  0  0  0  0  0  0  0  0  0  0  0
    2.2792   -1.1875    0.0000 C   0  0  0  0  0  0  0  0  0  0  0  0
   -1.8458   -1.1875    0.0000 O   0  0  0  0  0  0  0  0  0  0  0  0
   -1.0208   -0.3625    0.0000 O   0  0  0  0  0  0  0  0  0  0  0  0
    1.4542   -1.1875    0.0000 C   0  0  0  0  0  0  0  0  0  0  0  0
    4.7667    0.2458    0.0000 O   0  0  0  0  0  0  0  0  0  0  0  0
    0.2167   -0.4667    0.0000 C   0  0  0  0  0  0  0  0  0  0  0  0
    0.2167   -1.9000    0.0000 C   0  0  0  0  0  0  0  0  0  0  0  0
    1.0417   -1.9000    0.0000 C   0  0  0  0  0  0  0  0  0  0  0  0
    1.0417   -0.4667    0.0000 C   0  0  0  0  0  0  0  0  0  0  0  0
    3.9375    1.6708    0.0000 Cl  0  0  0  0  0  0  0  0  0  0  0  0
    2.6917    0.9583    0.0000 Cl  0  0  0  0  0  0  0  0  0  0  0  0
   -1.0208   -2.0125    0.0000 C   0  0  0  0  0  0  0  0  0  0  0  0
    2.6917   -1.9000    0.0000 O   0  0  0  0  0  0  0  0  0  0  0  0
    2.2792    0.2458    0.0000 C   0  0  0  0  0  0  0  0  0  0  0  0
    1.4542    0.2458    0.0000 O   0  0  0  0  0  0  0  0  0  0  0  0
  2  3  1  0
  4  3  1  0
  4  7  1  0
  5  1  1  0
  6  2  1  0
  7 10  1  0
  8  1  2  0
  9  1  2  0
 10 14  1  0
 11  2  2  0
 12  5  2  0
 13  5  1  0
 14 13  2  0
 15 12  1  0
 16  6  1  0
 17  6  1  0
 18  1  1  0
  7 19  1  6
  4 20  1  1
 21 20  1  0
 10 15  2  0
M  END
>  <ID>  (702) 


>  <MOLENAME>  (702) 
THIAMPHENICOL

>  <therap>  (702) 
antibacterial

>  <ref>  (702) 
Br J Vener Dis 47:379 (1971); Antimicrob Agents Chemother  14:788 (1978); Int J Odontostomat 2:7 (2008)

>  <cas#>  (702) 
15318-45-3

>  <source>  (702) 
synthetic; WIN-5063-2

>  <status>  (702) 
USAN, INN, BAN, JAN

>  <tradename>  (702) 
THIOCYMETIN

>  <SMILES>  (702) 
CS(=O)(=O)c1ccc([C@@H](O)[C@@H](CO)NC(=O)C(Cl)Cl)cc1

>  <standardized_failed>  (702) 
False

$$$$

     RDKit          2D

 22 24  0  0  0  0  0  0  0  0999 V2000
    2.3167   -0.3792    0.0000 S   0  0  0  0  0  0  0  0  0  0  0  0
    1.5167   -0.5500    0.0000 C   0  0  0  0  0  0  0  0  0  0  0  0
    2.6167   -1.7917    0.0000 C   0  0  0  0  0  0  0  0  0  0  0  0
    2.8792   -1.0042    0.0000 N   0  0  0  0  0  0  0  0  0  0  0  0
    1.8000   -1.9542    0.0000 C   0  0  0  0  0  0  0  0  0  0  0  0
    1.2542   -1.3375    0.0000 C   0  0  0  0  0  0  0  0  0  0  0  0
    3.1625   -2.4042    0.0000 C   0  0  0  0  0  0  0  0  0  0  0  0
    3.9667   -2.2417    0.0000 N   0  0  0  0  0  0  0  0  0  0  0  0
    0.8500   -0.0667    0.0000 C   0  0  0  0  0  0  0  0  0  0  0  0
    0.4375   -1.3375    0.0000 S   0  0  0  0  0  0  0  0  0  0  0  0
    1.9042    0.3333    0.0000 O   0  0  0  0  0  0  0  0  0  0  0  0
    3.0375    0.0333    0.0000 O   0  0  0  0  0  0  0  0  0  0  0  0
    0.1792   -0.5500    0.0000 C   0  0  0  0  0  0  0  0  0  0  0  0
    4.5167   -2.8625    0.0000 C   0  0  0  0  0  0  0  0  0  0  0  0
    2.9000   -3.1917    0.0000 O   0  0  0  0  0  0  0  0  0  0  0  0
    4.2500   -3.6417    0.0000 N   0  0  0  0  0  0  0  0  0  0  0  0
    1.5417   -2.7375    0.0000 O   0  0  0  0  0  0  0  0  0  0  0  0
    3.6875   -0.8417    0.0000 C   0  0  0  0  0  0  0  0  0  0  0  0
    4.7917   -4.2542    0.0000 C   0  0  0  0  0  0  0  0  0  0  0  0
    5.3167   -2.6917    0.0000 C   0  0  0  0  0  0  0  0  0  0  0  0
    5.6042   -4.1000    0.0000 C   0  0  0  0  0  0  0  0  0  0  0  0
    5.8667   -3.3167    0.0000 C   0  0  0  0  0  0  0  0  0  0  0  0
  2  1  1  0
  3  4  1  0
  4  1  1  0
  5  3  2  0
  6  2  2  0
  7  3  1  0
  8  7  1  0
  9  2  1  0
 10  6  1  0
 11  1  2  0
 12  1  2  0
 13  9  2  0
 14  8  1  0
 15  7  2  0
 16 14  2  0
 17  5  1  0
 18  4  1  0
 19 16  1  0
 20 14  1  0
 21 22  1  0
 22 20  2  0
  6  5  1  0
 13 10  1  0
 19 21  2  0
M  END
>  <ID>  (703) 


>  <MOLENAME>  (703) 
TENOXICAM

>  <therap>  (703) 
antiinflammatory

>  <ref>  (703) 
Curr Med Res Opin 8:9 (1982); Drugs 34:289 (1987); Anal Profiles Drug Subs Excip 22:431 (1993)

>  <cas#>  (703) 
59804-37-4

>  <source>  (703) 
synthetic; Ro-12-0068

>  <status>  (703) 
USAN, INN, BAN, JAN

>  <tradename>  (703) 
ALGANEX

>  <SMILES>  (703) 
CN1C(C(=O)Nc2ncccc2)=C(O)c2c(ccs2)S1(=O)=O

>  <standardized_failed>  (703) 
False

$$$$

     RDKit          2D

 13 14  0  0  0  0  0  0  0  0999 V2000
    1.1667   -1.3417    0.0000 C   0  0  0  0  0  0  0  0  0  0  0  0
    0.4542   -0.9250    0.0000 C   0  0  0  0  0  0  0  0  0  0  0  0
    1.1542   -2.1667    0.0000 C   0  0  0  0  0  0  0  0  0  0  0  0
   -0.2583   -1.3292    0.0000 C   0  0  0  0  0  0  0  0  0  0  0  0
    0.4417   -2.5750    0.0000 C   0  0  0  0  0  0  0  0  0  0  0  0
   -0.2708   -2.1542    0.0000 C   0  0  0  0  0  0  0  0  0  0  0  0
    1.8750   -0.9292    0.0000 N   0  0  0  0  0  0  0  0  0  0  0  0
    0.4667   -0.0917    0.0000 O   0  0  0  0  0  0  0  0  0  0  0  0
   -0.9708   -0.9042    0.0000 Cl  0  0  0  0  0  0  0  0  0  0  0  0
    0.4417   -3.4000    0.0000 Cl  0  0  0  0  0  0  0  0  0  0  0  0
    1.8667   -2.5792    0.0000 C   0  0  0  0  0  0  0  0  0  0  0  0
    2.5875   -1.3417    0.0000 C   0  0  0  0  0  0  0  0  0  0  0  0
    2.5875   -2.1667    0.0000 C   0  0  0  0  0  0  0  0  0  0  0  0
  2  1  2  0
  3  1  1  0
  4  2  1  0
  5  3  2  0
  6  5  1  0
  7  1  1  0
  8  2  1  0
  9  4  1  0
 10  5  1  0
 11  3  1  0
 12  7  2  0
 13 12  1  0
 11 13  2  0
  4  6  2  0
M  END
>  <ID>  (704) 


>  <MOLENAME>  (704) 
CHLOROXINE

>  <therap>  (704) 
chelating agent, antiseborrheic

>  <ref>  (704) 
Antimicrob. Agents Chemother. (1976), 10(2), 234-40; Arzneim. Forsch. (1970), 20(6), 821-4

>  <cas#>  (704) 
773-76-2

>  <source>  (704) 
synthetic

>  <status>  (704) 
USAN

>  <tradename>  (704) 
CAPITROL

>  <SMILES>  (704) 
Oc1c2ncccc2c(Cl)cc1Cl

>  <standardized_failed>  (704) 
False

$$$$

     RDKit          2D

 22 23  0  0  0  0  0  0  0  0999 V2000
    6.1167   -5.1667    0.0000 C   0  0  0  0  0  0  0  0  0  0  0  0
    6.8292   -4.7667    0.0000 C   0  0  0  0  0  0  0  0  0  0  0  0
    6.1167   -3.5167    0.0000 S   0  0  0  0  0  0  0  0  0  0  0  0
    6.8292   -3.9417    0.0000 C   0  0  0  0  0  0  0  0  0  0  0  0
    5.4042   -4.7667    0.0000 C   0  0  0  0  0  0  0  0  0  0  0  0
    5.4042   -3.9417    0.0000 C   0  0  0  0  0  0  0  0  0  0  0  0
    6.1167   -5.9917    0.0000 C   0  0  0  0  0  0  0  0  0  0  0  0
    7.5417   -5.1792    0.0000 C   0  0  0  0  0  0  0  0  0  0  0  0
    7.5500   -3.5167    0.0000 C   0  0  0  0  0  0  0  0  0  0  0  0
    8.2625   -4.7667    0.0000 C   0  0  0  0  0  0  0  0  0  0  0  0
    3.9667   -6.4042    0.0000 N   0  0  0  0  0  0  0  0  0  0  0  0
    8.2667   -3.9417    0.0000 C   0  0  0  0  0  0  0  0  0  0  0  0
    8.9750   -5.1792    0.0000 Cl  0  0  0  0  0  0  0  0  0  0  0  0
    5.4000   -6.4042    0.0000 C   0  0  0  0  0  0  0  0  0  0  0  0
    4.9542   -7.4292    0.0000 Cl  0  0  0  0  0  0  0  0  0  0  0  0
    4.6917   -5.1667    0.0000 C   0  0  0  0  0  0  0  0  0  0  0  0
    4.6917   -3.5167    0.0000 C   0  0  0  0  0  0  0  0  0  0  0  0
    4.6875   -5.9917    0.0000 C   0  0  0  0  0  0  0  0  0  0  0  0
    3.2542   -5.9917    0.0000 C   0  0  0  0  0  0  0  0  0  0  0  0
    3.9667   -7.2292    0.0000 C   0  0  0  0  0  0  0  0  0  0  0  0
    3.9875   -4.7542    0.0000 C   0  0  0  0  0  0  0  0  0  0  0  0
    3.9875   -3.9292    0.0000 C   0  0  0  0  0  0  0  0  0  0  0  0
  2  1  1  0
  3  6  1  0
  4  2  2  0
  5  1  1  0
  6  5  2  0
  7  1  2  0
  8  2  1  0
  9  4  1  0
 10  8  2  0
 11 18  1  0
 12 10  1  0
 13 10  1  0
 14  7  1  0
 16  5  1  0
 17  6  1  0
 18 14  1  0
 19 11  1  0
 20 11  1  0
 21 16  2  0
 22 21  1  0
  3  4  1  0
 17 22  2  0
  9 12  2  0
M  END
>  <ID>  (705) 


>  <MOLENAME>  (705) 
CHLORPROTHIXENE HYDROCHLORIDE

>  <therap>  (705) 
antipsychotic

>  <ref>  (705) 
J Med Chem 36: 2219 (1993)

>  <cas#>  (705) 
113-59-7

>  <source>  (705) 
synthetic; N-714, RO-4-0403

>  <status>  (705) 
USP-XIII, INN, BAN, JAN

>  <tradename>  (705) 
TARACTAN

>  <SMILES>  (705) 
CN(C)CC/C=C1\c2c(cccc2)Sc2c1cc(Cl)cc2

>  <standardized_failed>  (705) 
False

$$$$

     RDKit          2D

 28 31  0  0  0  0  0  0  0  0999 V2000
    3.9542   -2.7667    0.0000 N   0  0  0  0  0  0  0  0  0  0  0  0
    5.3667   -1.9167    0.0000 N   0  0  0  0  0  0  0  0  0  0  0  0
    3.2500   -3.1792    0.0000 C   0  0  0  0  0  0  0  0  0  0  0  0
    6.0917   -1.4917    0.0000 C   0  0  0  0  0  0  0  0  0  0  0  0
    6.8042   -1.9042    0.0000 C   0  0  0  0  0  0  0  0  0  0  0  0
    3.9417   -1.9500    0.0000 C   0  0  0  0  0  0  0  0  0  0  0  0
    4.6792   -3.1667    0.0000 C   0  0  0  0  0  0  0  0  0  0  0  0
    2.5292   -2.7667    0.0000 C   0  0  0  0  0  0  0  0  0  0  0  0
    3.2417   -4.0042    0.0000 C   0  0  0  0  0  0  0  0  0  0  0  0
    4.6500   -1.5167    0.0000 C   0  0  0  0  0  0  0  0  0  0  0  0
    5.3792   -2.7417    0.0000 C   0  0  0  0  0  0  0  0  0  0  0  0
    8.2250   -1.9042    0.0000 C   0  0  0  0  0  0  0  0  0  0  0  0
    7.5167   -1.4917    0.0000 C   0  0  0  0  0  0  0  0  0  0  0  0
    1.8167   -3.1750    0.0000 C   0  0  0  0  0  0  0  0  0  0  0  0
    2.5292   -1.9417    0.0000 C   0  0  0  0  0  0  0  0  0  0  0  0
    2.5250   -4.4125    0.0000 C   0  0  0  0  0  0  0  0  0  0  0  0
    3.9542   -4.4167    0.0000 C   0  0  0  0  0  0  0  0  0  0  0  0
    8.9375   -1.5000    0.0000 C   0  0  0  0  0  0  0  0  0  0  0  0
    8.2250   -2.7292    0.0000 C   0  0  0  0  0  0  0  0  0  0  0  0
    1.8167   -1.5250    0.0000 C   0  0  0  0  0  0  0  0  0  0  0  0
    2.5167   -5.2375    0.0000 C   0  0  0  0  0  0  0  0  0  0  0  0
    3.9542   -5.2417    0.0000 C   0  0  0  0  0  0  0  0  0  0  0  0
    1.1125   -2.7667    0.0000 C   0  0  0  0  0  0  0  0  0  0  0  0
    9.6500   -1.9167    0.0000 C   0  0  0  0  0  0  0  0  0  0  0  0
    8.9375   -3.1500    0.0000 C   0  0  0  0  0  0  0  0  0  0  0  0
    3.2292   -5.6542    0.0000 C   0  0  0  0  0  0  0  0  0  0  0  0
    1.1125   -1.9417    0.0000 C   0  0  0  0  0  0  0  0  0  0  0  0
    9.6417   -2.7375    0.0000 C   0  0  0  0  0  0  0  0  0  0  0  0
  2 11  1  0
  3  1  1  0
  4  2  1  0
  5  4  2  0
  6  1  1  0
  7  1  1  0
  8  3  1  0
  9  3  1  0
 10  6  1  0
 11  7  1  0
 12 13  1  0
 13  5  1  0
 14  8  2  0
 15  8  1  0
 16  9  2  0
 17  9  1  0
 18 12  2  0
 19 12  1  0
 20 15  2  0
 21 16  1  0
 22 17  2  0
 23 14  1  0
 24 18  1  0
 25 19  2  0
 26 22  1  0
 27 20  1  0
 28 25  1  0
 10  2  1  0
 21 26  2  0
 23 27  2  0
 24 28  2  0
M  END
>  <ID>  (706) 


>  <MOLENAME>  (706) 
CINNARAZINE

>  <therap>  (706) 
H1 antihistamine

>  <ref>  (706) 
Arch Int Pharmacodyn Ther 204:37 (1973); Arch Pharmacol 318:234 (1982)

>  <cas#>  (706) 
298-57-7

>  <source>  (706) 
synthetic; R-516

>  <status>  (706) 
USAN, INN, BAN, JAN

>  <tradename>  (706) 
CINAZYN

>  <SMILES>  (706) 
C(=C/N1CCN(C(c2ccccc2)c2ccccc2)CC1)\Cc1ccccc1

>  <standardized_failed>  (706) 
False

$$$$

     RDKit          2D

 24 25  0  0  0  0  0  0  0  0999 V2000
    9.8417   -4.4125    0.0000 N   0  0  0  0  0  0  0  0  0  0  0  0
    9.0292   -4.2375    0.0000 C   0  0  0  0  0  0  0  0  0  0  0  0
    8.6167   -4.9500    0.0000 N   0  0  0  0  0  0  0  0  0  0  0  0
    2.4167   -6.3042    0.0000 N   0  0  0  0  0  0  0  0  0  0  0  0
    9.9167   -5.2292    0.0000 C   0  0  0  0  0  0  0  0  0  0  0  0
    5.2792   -4.6542    0.0000 C   0  0  0  0  0  0  0  0  0  0  0  0
    9.1792   -5.5667    0.0000 C   0  0  0  0  0  0  0  0  0  0  0  0
    7.7917   -4.9500    0.0000 N   0  0  0  0  0  0  0  0  0  0  0  0
    6.0667   -4.9125    0.0000 O   0  0  0  0  0  0  0  0  0  0  0  0
    5.2792   -3.8292    0.0000 C   0  0  0  0  0  0  0  0  0  0  0  0
    6.5542   -4.2417    0.0000 C   0  0  0  0  0  0  0  0  0  0  0  0
    7.3792   -4.2375    0.0000 C   0  0  0  0  0  0  0  0  0  0  0  0
    3.1417   -5.8917    0.0000 C   0  0  0  0  0  0  0  0  0  0  0  0
    6.0667   -3.5750    0.0000 C   0  0  0  0  0  0  0  0  0  0  0  0
    1.7042   -5.8917    0.0000 O   0  0  0  0  0  0  0  0  0  0  0  0
    4.5667   -5.0667    0.0000 C   0  0  0  0  0  0  0  0  0  0  0  0
    8.6917   -3.4667    0.0000 O   0  0  0  0  0  0  0  0  0  0  0  0
    2.4167   -7.1292    0.0000 O   0  0  0  0  0  0  0  0  0  0  0  0
   10.6417   -5.6542    0.0000 O   0  0  0  0  0  0  0  0  0  0  0  0
    3.8542   -6.3042    0.0000 C   0  0  0  0  0  0  0  0  0  0  0  0
    3.1417   -5.0667    0.0000 C   0  0  0  0  0  0  0  0  0  0  0  0
    3.8542   -4.6542    0.0000 C   0  0  0  0  0  0  0  0  0  0  0  0
    4.5667   -5.8917    0.0000 C   0  0  0  0  0  0  0  0  0  0  0  0
   11.1042   -4.0875    0.0000 Na  0  0  0  0  0 15  0  0  0  0  0  0
  2  1  1  0
  3  2  1  0
  4 13  1  0
  5  1  1  0
  6  9  1  0
  7  5  1  0
  8  3  1  0
  9 11  1  0
 10 14  1  0
 11 12  1  0
 12  8  2  0
 13 20  2  0
 14 11  2  0
 15  4  1  0
 16  6  1  0
 17  2  2  0
 18  4  2  0
 19  5  2  0
 20 23  1  0
 21 22  2  0
 22 16  1  0
 23 16  2  0
  7  3  1  0
  6 10  2  0
 13 21  1  0
M  CHG  4   1  -1   4   1  15  -1  24   1
M  END
>  <ID>  (707) 


>  <MOLENAME>  (707) 
DANTROLENE SODIUM

>  <therap>  (707) 
muscle relaxant (skeletal)

>  <ref>  (707) 
J. Pharm. Sci. (1973), 62(6), 948-51; J. Med. Chem. (1967), 10(5), 807-10; Anaesthesia (2004), 59(4), 364-373

>  <cas#>  (707) 
24868-20-0, 14663-23-1 [anhydrous], 7261-97-4 [dantrolene]

>  <source>  (707) 
synthetic; F-440

>  <status>  (707) 
USAN, INN, BAN, JAN

>  <tradename>  (707) 
DANTRIUM

>  <SMILES>  (707) 
O=C1CN(/N=C/c2ccc(-c3ccc([N+](=O)[O-])cc3)o2)C(=O)N1

>  <standardized_failed>  (707) 
False

$$$$

     RDKit          2D

 36 39  0  0  0  0  0  0  0  0999 V2000
    3.1167   -0.6875    0.0000 C   0  0  0  0  0  0  0  0  0  0  0  0
    1.6875   -1.5167    0.0000 C   0  0  0  0  0  0  0  0  0  0  0  0
    3.9000   -0.4292    0.0000 C   0  0  0  0  0  0  0  0  0  0  0  0
    0.9750   -1.9292    0.0000 C   0  0  0  0  0  0  0  0  0  0  0  0
    3.1167   -1.5167    0.0000 C   0  0  0  0  0  0  0  0  0  0  0  0
    2.4000   -1.9292    0.0000 C   0  0  0  0  0  0  0  0  0  0  0  0
    0.9750   -2.7542    0.0000 C   0  0  0  0  0  0  0  0  0  0  0  0
    1.6875   -0.6875    0.0000 C   0  0  0  0  0  0  0  0  0  0  0  0
    2.4000   -0.2750    0.0000 C   0  0  0  0  0  0  0  0  0  0  0  0
    4.3875   -1.1000    0.0000 C   0  0  0  0  0  0  0  0  0  0  0  0
    0.2625   -1.5167    0.0000 C   0  0  0  0  0  0  0  0  0  0  0  0
    3.9000   -1.7667    0.0000 C   0  0  0  0  0  0  0  0  0  0  0  0
    3.9000    0.3583    0.0000 C   0  0  0  0  0  0  0  0  0  0  0  0
    0.2625   -3.1667    0.0000 C   0  0  0  0  0  0  0  0  0  0  0  0
    4.6875   -0.1792    0.0000 O   0  0  0  0  0  0  0  0  0  0  0  0
    2.4000   -2.7542    0.0000 C   0  0  0  0  0  0  0  0  0  0  0  0
   -0.4583   -1.9292    0.0000 C   0  0  0  0  0  0  0  0  0  0  0  0
   -0.4583   -2.7542    0.0000 C   0  0  0  0  0  0  0  0  0  0  0  0
    5.4625   -0.2042    0.0000 C   0  0  0  0  0  0  0  0  0  0  0  0
    1.6875   -3.1667    0.0000 C   0  0  0  0  0  0  0  0  0  0  0  0
    5.7042    1.7708    0.0000 C   0  0  0  0  0  0  0  0  0  0  0  0
    1.6792   -2.2167    0.0000 F   0  0  0  0  0  0  0  0  0  0  0  0
    4.4750    1.0583    0.0000 C   0  0  0  0  0  0  0  0  0  0  0  0
    3.3250    0.6208    0.0000 O   0  0  0  0  0  0  0  0  0  0  0  0
    5.2917    1.0583    0.0000 O   0  0  0  0  0  0  0  0  0  0  0  0
    5.9167    0.5625    0.0000 O   0  0  0  0  0  0  0  0  0  0  0  0
    5.3000    2.4833    0.0000 O   0  0  0  0  0  0  0  0  0  0  0  0
   -1.1750   -3.1792    0.0000 O   0  0  0  0  0  0  0  0  0  0  0  0
    3.0792    0.0333    0.0000 C   0  0  0  0  0  0  0  0  0  0  0  0
    0.9625   -0.2625    0.0000 O   0  0  0  0  0  0  0  0  0  0  0  0
    0.9292   -1.1542    0.0000 C   0  0  0  0  0  0  0  0  0  0  0  0
    5.2125   -1.0917    0.0000 C   0  0  0  0  0  0  0  0  0  0  0  0
    5.9792   -0.8750    0.0000 C   0  0  0  0  0  0  0  0  0  0  0  0
    6.5292    1.7625    0.0000 C   0  0  0  0  0  0  0  0  0  0  0  0
    7.0125   -0.8750    0.0000 C   0  0  0  0  0  0  0  0  0  0  0  0
    6.9417    1.0458    0.0000 C   0  0  0  0  0  0  0  0  0  0  0  0
  2  8  1  0
  3  1  1  0
  4  2  1  0
  5  1  1  0
  6  5  1  0
  7  4  1  0
  8  9  1  0
  9  1  1  0
 10  3  1  0
 11  4  1  0
 12  5  1  0
  3 13  1  0
 14  7  2  0
  3 15  1  6
 16  6  1  0
 17 11  2  0
 18 17  1  0
 19 15  1  0
 20 16  1  0
 21 25  1  0
 22  2  1  0
 23 13  1  0
 24 13  2  0
 25 23  1  0
 26 19  2  0
 27 21  2  0
 28 18  2  0
  1 29  1  1
  8 30  1  1
  4 31  1  1
 10 32  1  1
 33 19  1  0
 34 21  1  0
 35 33  1  0
 36 34  1  0
 10 12  1  0
  2  6  1  0
  7 20  1  0
 14 18  1  0
M  END
>  <ID>  (708) 


>  <MOLENAME>  (708) 
BETAMETHASONE 17.21-DIPROPIONATE

>  <therap>  (708) 
glucocorticoid, antiinflammatory

>  <ref>  (708) 
Anal Profiles Drug Subs 6:43 (1977)

>  <cas#>  (708) 
5593-20-4

>  <source>  (708) 
semisynthetic

>  <status>  (708) 
USP, INN, BAN, JAN

>  <tradename>  (708) 
DIPROLENE

>  <SMILES>  (708) 
CCC(=O)OCC(=O)[C@@]1(OC(=O)CC)[C@@H](C)CC2C3CCC4=CC(=O)C=C[C@]4(C)C3(F)[C@@H](O)C[C@@]21C

>  <standardized_failed>  (708) 
False

$$$$

     RDKit          2D

 31 32  0  0  0  0  0  0  0  0999 V2000
    5.5917    0.7125    0.0000 C   0  0  0  0  0  0  0  0  0  0  0  0
    5.5917   -0.1167    0.0000 C   0  0  0  0  0  0  0  0  0  0  0  0
    4.8667   -0.5292    0.0000 C   0  0  0  0  0  0  0  0  0  0  0  0
    6.3042    1.1250    0.0000 C   0  0  0  0  0  0  0  0  0  0  0  0
    4.1542    0.7125    0.0000 C   0  0  0  0  0  0  0  0  0  0  0  0
    4.1500   -0.1167    0.0000 C   0  0  0  0  0  0  0  0  0  0  0  0
    4.8667    1.1333    0.0000 O   0  0  0  0  0  0  0  0  0  0  0  0
    7.0167    0.7208    0.0000 C   0  0  0  0  0  0  0  0  0  0  0  0
    6.3042   -0.5292    0.0000 C   0  0  0  0  0  0  0  0  0  0  0  0
    3.4375    1.1250    0.0000 C   0  0  0  0  0  0  0  0  0  0  0  0
    4.8667   -1.3542    0.0000 C   0  0  0  0  0  0  0  0  0  0  0  0
    7.0250   -0.1167    0.0000 C   0  0  0  0  0  0  0  0  0  0  0  0
    2.7250    0.7125    0.0000 C   0  0  0  0  0  0  0  0  0  0  0  0
    3.4375   -0.5292    0.0000 C   0  0  0  0  0  0  0  0  0  0  0  0
    5.5792   -1.7667    0.0000 C   0  0  0  0  0  0  0  0  0  0  0  0
    2.7250   -0.1167    0.0000 C   0  0  0  0  0  0  0  0  0  0  0  0
    6.4375   -1.7542    0.0000 C   0  0  0  0  0  0  0  0  0  0  0  0
    2.0042    1.1208    0.0000 O   0  0  0  0  0  0  0  0  0  0  0  0
    7.7292    1.1333    0.0000 O   0  0  0  0  0  0  0  0  0  0  0  0
    6.8625   -2.4625    0.0000 O   0  0  0  0  0  0  0  0  0  0  0  0
    6.3042    1.9583    0.0000 I   0  0  0  0  0  0  0  0  0  0  0  0
    6.8375   -1.0292    0.0000 O   0  0  0  0  0  0  0  0  0  0  0  0
    3.4292    1.9583    0.0000 I   0  0  0  0  0  0  0  0  0  0  0  0
    7.7417   -0.5292    0.0000 I   0  0  0  0  0  0  0  0  0  0  0  0
    2.0042   -0.5292    0.0000 I   0  0  0  0  0  0  0  0  0  0  0  0
    4.1542   -1.7667    0.0000 C   0  0  0  0  0  0  0  0  0  0  0  0
    7.7792   -2.8417    0.0000 Na  0  0  0  0  0 15  0  0  0  0  0  0
    0.5667    1.4000    0.0000 Na  0  0  0  0  0 15  0  0  0  0  0  0
    5.5792   -2.5917    0.0000 C   0  0  0  0  0  0  0  0  0  0  0  0
    4.1542   -2.5917    0.0000 C   0  0  0  0  0  0  0  0  0  0  0  0
    4.8667   -3.0042    0.0000 C   0  0  0  0  0  0  0  0  0  0  0  0
  2  1  1  0
  3  2  2  0
  4  1  2  0
  5  7  1  0
  6  5  2  0
  7  1  1  0
  8  4  1  0
  9  2  1  0
 10  5  1  0
 11  3  1  0
 12  8  1  0
 13 10  2  0
 14  6  1  0
 15 11  2  0
 16 13  1  0
 17 15  1  0
 18 13  1  0
 19  8  2  0
 20 17  1  0
 21  4  1  0
 22 17  2  0
 23 10  1  0
 24 12  1  0
 25 16  1  0
 26 11  1  0
 29 15  1  0
 30 26  2  0
 31 30  1  0
  3  6  1  0
  9 12  2  0
 16 14  2  0
 29 31  2  0
M  CHG  4  18  -1  20  -1  27   1  28   1
M  END
>  <ID>  (709) 


>  <MOLENAME>  (709) 
ERYTHROSINE SODIUM

>  <therap>  (709) 
color additive

>  <ref>  (709) 
JACS 49:1594 (1927); Food Cosmet Toxicol 14:525 (1976)

>  <cas#>  (709) 
16423-68-0

>  <source>  (709) 
synthetic

>  <status>  (709) 
USP-XXII

>  <tradename>  (709) 
nan

>  <SMILES>  (709) 
O=C(O)c1c(-c2c3cc(I)c(=O)c(I)c-3oc3c2cc(I)c(O)c3I)cccc1

>  <standardized_failed>  (709) 
False

$$$$

     RDKit          2D

 18 19  0  0  0  0  0  0  0  0999 V2000
    4.4625   -2.2167    0.0000 N   0  0  0  0  0  0  0  0  0  0  0  0
    3.7542   -0.9792    0.0000 N   0  0  0  0  0  0  0  0  0  0  0  0
    3.7542   -1.8042    0.0000 C   0  0  0  0  0  0  0  0  0  0  0  0
    4.4625   -3.0417    0.0000 C   0  0  0  0  0  0  0  0  0  0  0  0
    5.1750   -1.7917    0.0000 C   0  0  0  0  0  0  0  0  0  0  0  0
    5.1792   -0.9750    0.0000 C   0  0  0  0  0  0  0  0  0  0  0  0
    4.4625   -0.5667    0.0000 C   0  0  0  0  0  0  0  0  0  0  0  0
    3.8000   -3.5167    0.0000 C   0  0  0  0  0  0  0  0  0  0  0  0
    5.1292   -3.5167    0.0000 O   0  0  0  0  0  0  0  0  0  0  0  0
    3.0375   -2.2167    0.0000 O   0  0  0  0  0  0  0  0  0  0  0  0
    4.0542   -4.3042    0.0000 C   0  0  0  0  0  0  0  0  0  0  0  0
    4.8792   -4.3042    0.0000 C   0  0  0  0  0  0  0  0  0  0  0  0
    4.4542    0.2583    0.0000 O   0  0  0  0  0  0  0  0  0  0  0  0
    5.8917   -0.5625    0.0000 C   0  0  0  0  0  0  0  0  0  0  0  0
    3.0625   -3.4917    0.0000 C   0  0  0  0  0  0  0  0  0  0  0  0
    4.0500   -5.1292    0.0000 O   0  0  0  0  0  0  0  0  0  0  0  0
    2.5500   -4.2417    0.0000 O   0  0  0  0  0  0  0  0  0  0  0  0
    5.9000    0.2625    0.0000 C   0  0  0  0  0  0  0  0  0  0  0  0
  2  3  1  0
  3  1  1  0
  4  1  1  0
  5  1  1  0
  6  5  2  0
  7  6  1  0
  8  4  1  0
  9  4  1  0
 10  3  2  0
 11  8  1  0
 12  9  1  0
 13  7  1  0
 14  6  1  0
 15  8  1  0
 16 11  1  0
 17 15  1  0
 18 14  1  0
  7  2  2  0
 12 11  1  0
M  END
>  <ID>  (710) 


>  <MOLENAME>  (710) 
EDOXUDINE

>  <therap>  (710) 
antiviral

>  <ref>  (710) 
Antimicrob. Agents Chemother. (1976), 10(1), 119-22; Biochem. Pharmacol. (1975), 24(10), 1073-8; J. Med. Chem. (1969), 12, 533-4

>  <cas#>  (710) 
15176-29-1

>  <source>  (710) 
synthetic; EDU; EUDR; ORF-15817; RWJ-15817

>  <status>  (710) 
USAN, INN

>  <tradename>  (710) 
nan

>  <SMILES>  (710) 
CCc1cn(C2OCC(O)C2CO)c(=O)nc1O

>  <standardized_failed>  (710) 
False

$$$$

     RDKit          2D

 23 25  0  0  0  0  0  0  0  0999 V2000
    5.4917   -2.7667    0.0000 C   0  0  0  0  0  0  0  0  0  0  0  0
    4.0667   -2.7667    0.0000 C   0  0  0  0  0  0  0  0  0  0  0  0
    4.0667   -1.9417    0.0000 C   0  0  0  0  0  0  0  0  0  0  0  0
    3.3542   -1.5292    0.0000 N   0  0  0  0  0  0  0  0  0  0  0  0
    4.7792   -3.1792    0.0000 C   0  0  0  0  0  0  0  0  0  0  0  0
    4.7792   -1.5292    0.0000 N   0  0  0  0  0  0  0  0  0  0  0  0
    5.4917   -1.9417    0.0000 C   0  0  0  0  0  0  0  0  0  0  0  0
    2.6375   -1.9417    0.0000 C   0  0  0  0  0  0  0  0  0  0  0  0
    3.3542   -3.1792    0.0000 C   0  0  0  0  0  0  0  0  0  0  0  0
    6.2167   -3.1875    0.0000 C   0  0  0  0  0  0  0  0  0  0  0  0
    2.6375   -2.7667    0.0000 C   0  0  0  0  0  0  0  0  0  0  0  0
    1.9250   -1.5292    0.0000 N   0  0  0  0  0  0  0  0  0  0  0  0
    4.7792   -4.0042    0.0000 O   0  0  0  0  0  0  0  0  0  0  0  0
    0.4917   -0.7000    0.0000 N   0  0  0  0  0  0  0  0  0  0  0  0
    6.2125   -4.0167    0.0000 O   0  0  0  0  0  0  0  0  0  0  0  0
    1.9167   -3.1875    0.0000 F   0  0  0  0  0  0  0  0  0  0  0  0
    6.9292   -2.7750    0.0000 O   0  0  0  0  0  0  0  0  0  0  0  0
    4.7792   -0.7042    0.0000 C   0  0  0  0  0  0  0  0  0  0  0  0
    1.9250   -0.7000    0.0000 C   0  0  0  0  0  0  0  0  0  0  0  0
    1.2042   -1.9417    0.0000 C   0  0  0  0  0  0  0  0  0  0  0  0
    0.4917   -1.5292    0.0000 C   0  0  0  0  0  0  0  0  0  0  0  0
    1.2125   -0.2875    0.0000 C   0  0  0  0  0  0  0  0  0  0  0  0
    5.4917   -0.2917    0.0000 C   0  0  0  0  0  0  0  0  0  0  0  0
  2  5  1  0
  3  6  1  0
  4  3  2  0
  5  1  1  0
  6  7  1  0
  7  1  2  0
  8  4  1  0
  9  2  2  0
 10  1  1  0
 11  9  1  0
 12  8  1  0
 13  5  2  0
 14 21  1  0
 15 10  2  0
 16 11  1  0
 17 10  1  0
 18  6  1  0
 19 12  1  0
 20 12  1  0
 21 20  1  0
 22 19  1  0
 23 18  1  0
  3  2  1  0
  8 11  2  0
 22 14  1  0
M  END
>  <ID>  (711) 


>  <MOLENAME>  (711) 
ENOXACIN

>  <therap>  (711) 
antibacterial

>  <ref>  (711) 
Drugs (1988), 36(1), 32-66; Antimicrob. Agents Chemother. (1985), 28(5), 716-21; J. Med. Chem. (1984), 27(3), 292-301

>  <cas#>  (711) 
74011-58-8

>  <source>  (711) 
synthetic; AT2266, CI-919, PD-107779

>  <status>  (711) 
USAN, INN, BAN, JAN

>  <tradename>  (711) 
PENETREX

>  <SMILES>  (711) 
CCn1cc(C(=O)O)c(=O)c2cc(F)c(N3CCNCC3)nc21

>  <standardized_failed>  (711) 
False

$$$$

     RDKit          2D

 24 25  0  0  0  0  0  0  0  0999 V2000
    1.1750   -1.6500    0.0000 C   0  0  0  0  0  0  0  0  0  0  0  0
    1.8917   -2.0625    0.0000 C   0  0  0  0  0  0  0  0  0  0  0  0
    1.1667   -0.8250    0.0000 C   0  0  0  0  0  0  0  0  0  0  0  0
    2.6042   -1.6500    0.0000 N   0  0  0  0  0  0  0  0  0  0  0  0
    3.3167   -2.0542    0.0000 C   0  0  0  0  0  0  0  0  0  0  0  0
    4.0292   -1.6417    0.0000 C   0  0  0  0  0  0  0  0  0  0  0  0
    6.1500   -0.4042    0.0000 C   0  0  0  0  0  0  0  0  0  0  0  0
    4.7417   -2.0542    0.0000 C   0  0  0  0  0  0  0  0  0  0  0  0
    6.8667   -0.8125    0.0000 C   0  0  0  0  0  0  0  0  0  0  0  0
    5.4417   -0.8250    0.0000 C   0  0  0  0  0  0  0  0  0  0  0  0
    0.4542   -0.4167    0.0000 O   0  0  0  0  0  0  0  0  0  0  0  0
    3.3167   -2.8792    0.0000 O   0  0  0  0  0  0  0  0  0  0  0  0
    5.4500   -1.6417    0.0000 C   0  0  0  0  0  0  0  0  0  0  0  0
    6.8667   -1.6292    0.0000 C   0  0  0  0  0  0  0  0  0  0  0  0
    1.8875   -0.4125    0.0000 O   0  0  0  0  0  0  0  0  0  0  0  0
    6.1667   -2.0500    0.0000 C   0  0  0  0  0  0  0  0  0  0  0  0
    6.1417    0.4208    0.0000 O   0  0  0  0  0  0  0  0  0  0  0  0
    0.4625   -2.0625    0.0000 C   0  0  0  0  0  0  0  0  0  0  0  0
    7.5792   -0.3917    0.0000 O   0  0  0  0  0  0  0  0  0  0  0  0
    1.8917   -2.8917    0.0000 C   0  0  0  0  0  0  0  0  0  0  0  0
    6.8500    0.8375    0.0000 C   0  0  0  0  0  0  0  0  0  0  0  0
    8.2917   -0.8000    0.0000 C   0  0  0  0  0  0  0  0  0  0  0  0
    0.4625   -2.8917    0.0000 C   0  0  0  0  0  0  0  0  0  0  0  0
    1.1750   -3.3042    0.0000 C   0  0  0  0  0  0  0  0  0  0  0  0
  2  1  2  0
  3  1  1  0
  4  2  1  0
  5  4  1  0
  6  5  1  0
  7 10  2  0
  8  6  2  0
  9 14  2  0
 10 13  1  0
 11  3  2  0
 12  5  2  0
 13  8  1  0
 14 16  1  0
 15  3  1  0
 16 13  2  0
 17  7  1  0
 18  1  1  0
 19  9  1  0
 20  2  1  0
 21 17  1  0
 22 19  1  0
 23 18  2  0
 24 23  1  0
 20 24  2  0
  9  7  1  0
M  END
>  <ID>  (712) 


>  <MOLENAME>  (712) 
TRANILAST

>  <therap>  (712) 
antiallergic, mast cell degranulation inhibitor, angiogenesis blocker

>  <ref>  (712) 
Br J Pharmacol 118:915 (1996); 122:1061 (1997); Eur J Pharmacol 361:191 (1998)

>  <cas#>  (712) 
53902-12-8

>  <source>  (712) 
synthetic; MK-341

>  <status>  (712) 
USAN, INN, JAN

>  <tradename>  (712) 
nan

>  <SMILES>  (712) 
COc1ccc(/C=C/C(=O)Nc2c(C(=O)O)cccc2)cc1OC

>  <standardized_failed>  (712) 
False

$$$$

     RDKit          2D

 14 16  0  0  0  0  0  0  0  0999 V2000
    3.4708   -0.0917    0.0000 N   0  0  0  0  0  0  0  0  0  0  0  0
    3.4667   -1.7375    0.0000 S   0  0  0  0  0  0  0  0  0  0  0  0
    2.7625   -0.5000    0.0000 C   0  0  0  0  0  0  0  0  0  0  0  0
    4.1833   -0.5042    0.0000 C   0  0  0  0  0  0  0  0  0  0  0  0
    2.7583   -1.3250    0.0000 C   0  0  0  0  0  0  0  0  0  0  0  0
    4.1833   -1.3292    0.0000 C   0  0  0  0  0  0  0  0  0  0  0  0
    2.0542   -0.0917    0.0000 C   0  0  0  0  0  0  0  0  0  0  0  0
    4.8958   -0.0917    0.0000 C   0  0  0  0  0  0  0  0  0  0  0  0
    4.8958   -1.7417    0.0000 C   0  0  0  0  0  0  0  0  0  0  0  0
    2.0458   -1.7375    0.0000 C   0  0  0  0  0  0  0  0  0  0  0  0
    1.3417   -0.5000    0.0000 C   0  0  0  0  0  0  0  0  0  0  0  0
    5.6125   -1.3292    0.0000 C   0  0  0  0  0  0  0  0  0  0  0  0
    5.6083   -0.5000    0.0000 C   0  0  0  0  0  0  0  0  0  0  0  0
    1.3375   -1.3208    0.0000 C   0  0  0  0  0  0  0  0  0  0  0  0
  2  5  1  0
  3  1  1  0
  4  1  1  0
  5  3  2  0
  6  4  2  0
  7  3  1  0
  8  4  1  0
  9  6  1  0
 10  5  1  0
 11  7  2  0
 12 13  1  0
 13  8  2  0
 14 10  2  0
  6  2  1  0
 14 11  1  0
 12  9  2  0
M  END
>  <ID>  (713) 


>  <MOLENAME>  (713) 
PHENOTHIAZINE

>  <therap>  (713) 
anthelmintic

>  <ref>  (713) 
J Pract Chem 89:11 (1914)

>  <cas#>  (713) 
92-94-2

>  <source>  (713) 
synthetic

>  <status>  (713) 
NF-XII, INN

>  <tradename>  (713) 
NEMAZINE

>  <SMILES>  (713) 
c1cc2c(cc1)Sc1c(cccc1)N2

>  <standardized_failed>  (713) 
False

$$$$

     RDKit          2D

 28 29  0  0  0  0  0  0  0  0999 V2000
    5.1792   -8.0500    0.0000 C   0  0  0  0  0  0  0  0  0  0  0  0
    7.8792   -7.2917    0.0000 C   0  0  0  0  0  0  0  0  0  0  0  0
    9.3042   -6.4667    0.0000 C   0  0  0  0  0  0  0  0  0  0  0  0
    8.5917   -7.7042    0.0000 C   0  0  0  0  0  0  0  0  0  0  0  0
    9.3042   -7.2917    0.0000 C   0  0  0  0  0  0  0  0  0  0  0  0
    3.0417   -8.4625    0.0000 N   0  0  0  0  0  0  0  0  0  0  0  0
    4.4667   -8.4625    0.0000 C   0  0  0  0  0  0  0  0  0  0  0  0
    7.1667   -7.7042    0.0000 O   0  0  0  0  0  0  0  0  0  0  0  0
    8.5917   -6.0542    0.0000 O   0  0  0  0  0  0  0  0  0  0  0  0
    5.1792   -7.2250    0.0000 C   0  0  0  0  0  0  0  0  0  0  0  0
    5.8917   -8.4625    0.0000 C   0  0  0  0  0  0  0  0  0  0  0  0
    3.7542   -8.0500    0.0000 C   0  0  0  0  0  0  0  0  0  0  0  0
    7.8792   -6.4667    0.0000 O   0  0  0  0  0  0  0  0  0  0  0  0
   10.0167   -6.0542    0.0000 O   0  0  0  0  0  0  0  0  0  0  0  0
    2.3292   -8.0500    0.0000 C   0  0  0  0  0  0  0  0  0  0  0  0
    6.6042   -8.0500    0.0000 C   0  0  0  0  0  0  0  0  0  0  0  0
    5.8917   -6.8167    0.0000 C   0  0  0  0  0  0  0  0  0  0  0  0
    4.4667   -6.8167    0.0000 C   0  0  0  0  0  0  0  0  0  0  0  0
    5.8917   -9.2875    0.0000 C   0  0  0  0  0  0  0  0  0  0  0  0
    3.7542   -7.2292    0.0000 C   0  0  0  0  0  0  0  0  0  0  0  0
    2.3292   -7.2250    0.0000 C   0  0  0  0  0  0  0  0  0  0  0  0
    6.6042   -9.7000    0.0000 C   0  0  0  0  0  0  0  0  0  0  0  0
    7.3167   -8.4625    0.0000 C   0  0  0  0  0  0  0  0  0  0  0  0
    4.4667   -5.9917    0.0000 C   0  0  0  0  0  0  0  0  0  0  0  0
    5.8917   -5.9917    0.0000 C   0  0  0  0  0  0  0  0  0  0  0  0
    3.0417   -6.8125    0.0000 C   0  0  0  0  0  0  0  0  0  0  0  0
    5.1792   -5.5750    0.0000 C   0  0  0  0  0  0  0  0  0  0  0  0
    7.3167   -9.2917    0.0000 C   0  0  0  0  0  0  0  0  0  0  0  0
  3  5  1  0
  4  2  1  0
  5  4  2  0
  6 12  1  0
  7  1  1  0
  8  2  2  0
  9  3  2  0
 10  1  1  0
 11  1  1  0
 12  7  1  0
 13  2  1  0
 14  3  1  0
 15  6  1  0
 16 11  1  0
 17 10  1  0
 18 10  1  0
 19 11  1  0
 20 12  1  0
 21 15  1  0
 22 19  1  0
 23 16  1  0
 24 18  1  0
 25 17  1  0
 26 20  1  0
 27 24  1  0
 28 22  1  0
 23 28  1  0
 25 27  1  0
 26 21  1  0
M  END
>  <ID>  (714) 


>  <MOLENAME>  (714) 
PERHEXILINE MALEATE

>  <therap>  (714) 
coronary vasodilator

>  <ref>  (714) 
hepatotoxic at clinical dose (300mg)

>  <cas#>  (714) 
6724-53-4, 6621-47-2 [perhexiline]

>  <source>  (714) 
synthetic

>  <status>  (714) 
USAN, INN, BAN

>  <tradename>  (714) 
PEXID

>  <SMILES>  (714) 
C1CCC(C(CC2CCCCN2)C2CCCCC2)CC1

>  <standardized_failed>  (714) 
False

$$$$

     RDKit          2D

 47 49  0  0  0  0  0  0  0  0999 V2000
    4.8667   -2.7917    0.0000 C   0  0  0  0  0  0  0  0  0  0  0  0
    6.5417   -3.0000    0.0000 C   0  0  0  0  0  0  0  0  0  0  0  0
    9.2542   -3.6375    0.0000 C   0  0  0  0  0  0  0  0  0  0  0  0
    2.9292   -3.9292    0.0000 C   0  0  0  0  0  0  0  0  0  0  0  0
    7.8167   -3.4125    0.0000 C   0  0  0  0  0  0  0  0  0  0  0  0
    4.0417   -2.7917    0.0000 C   0  0  0  0  0  0  0  0  0  0  0  0
    2.9292   -4.7542    0.0000 C   0  0  0  0  0  0  0  0  0  0  0  0
   10.0917   -3.6375    0.0000 C   0  0  0  0  0  0  0  0  0  0  0  0
    7.0417   -3.6667    0.0000 C   0  0  0  0  0  0  0  0  0  0  0  0
    5.8500   -5.7667    0.0000 S   0  0  0  0  0  0  0  0  0  0  0  0
   10.5042   -2.9167    0.0000 C   0  0  0  0  0  0  0  0  0  0  0  0
    2.2042   -5.1667    0.0000 C   0  0  0  0  0  0  0  0  0  0  0  0
    5.6542   -3.0042    0.0000 O   0  0  0  0  0  0  0  0  0  0  0  0
    7.0292   -2.3375    0.0000 O   0  0  0  0  0  0  0  0  0  0  0  0
    2.2042   -3.5125    0.0000 O   0  0  0  0  0  0  0  0  0  0  0  0
    8.8417   -2.9167    0.0000 O   0  0  0  0  0  0  0  0  0  0  0  0
    8.4042   -3.9917    0.0000 O   0  0  0  0  0  0  0  0  0  0  0  0
    3.6417   -3.5125    0.0000 O   0  0  0  0  0  0  0  0  0  0  0  0
    5.2792   -2.0750    0.0000 C   0  0  0  0  0  0  0  0  0  0  0  0
    1.4917   -4.7542    0.0000 C   0  0  0  0  0  0  0  0  0  0  0  0
   10.0917   -2.2000    0.0000 C   0  0  0  0  0  0  0  0  0  0  0  0
    7.8167   -2.5875    0.0000 C   0  0  0  0  0  0  0  0  0  0  0  0
    9.2542   -2.2000    0.0000 C   0  0  0  0  0  0  0  0  0  0  0  0
    1.4917   -3.9292    0.0000 C   0  0  0  0  0  0  0  0  0  0  0  0
    3.6292   -2.0750    0.0000 C   0  0  0  0  0  0  0  0  0  0  0  0
    4.8667   -1.3542    0.0000 C   0  0  0  0  0  0  0  0  0  0  0  0
    4.0417   -1.3542    0.0000 C   0  0  0  0  0  0  0  0  0  0  0  0
    6.5167   -5.7667    0.0000 O   0  0  0  0  0  0  0  0  0  0  0  0
    5.8417   -6.4417    0.0000 O   0  0  0  0  0  0  0  0  0  0  0  0
    3.6417   -5.1667    0.0000 N   0  0  0  0  0  0  0  0  0  0  0  0
   10.5042   -4.3500    0.0000 N   0  0  0  0  0  0  0  0  0  0  0  0
    5.1750   -5.7625    0.0000 O   0  0  0  0  0  0  0  0  0  0  0  0
    5.8417   -5.0875    0.0000 O   0  0  0  0  0  0  0  0  0  0  0  0
    6.8167   -4.4625    0.0000 O   0  0  0  0  0  0  0  0  0  0  0  0
   11.3292   -2.9167    0.0000 O   0  0  0  0  0  0  0  0  0  0  0  0
    2.2042   -6.0000    0.0000 O   0  0  0  0  0  0  0  0  0  0  0  0
    2.8292   -2.0500    0.0000 N   0  0  0  0  0  0  0  0  0  0  0  0
    5.2792   -0.6417    0.0000 N   0  0  0  0  0  0  0  0  0  0  0  0
    6.1042   -2.0750    0.0000 O   0  0  0  0  0  0  0  0  0  0  0  0
   10.5042   -1.4875    0.0000 O   0  0  0  0  0  0  0  0  0  0  0  0
    0.7792   -5.1667    0.0000 O   0  0  0  0  0  0  0  0  0  0  0  0
    8.8417   -1.4875    0.0000 C   0  0  0  0  0  0  0  0  0  0  0  0
    8.4042   -2.0000    0.0000 C   0  0  0  0  0  0  0  0  0  0  0  0
    0.7792   -3.5125    0.0000 C   0  0  0  0  0  0  0  0  0  0  0  0
    9.3792   -0.8542    0.0000 N   0  0  0  0  0  0  0  0  0  0  0  0
    0.1417   -4.0500    0.0000 O   0  0  0  0  0  0  0  0  0  0  0  0
    8.1792   -1.2000    0.0000 O   0  0  0  0  0  0  0  0  0  0  0  0
  2 13  1  0
  3 17  1  1
  4 18  1  6
  5  9  1  0
  6  1  1  0
  7  4  1  0
  8  3  1  0
  9  2  1  0
 11  8  1  0
 12  7  1  0
  1 13  1  1
 14  2  1  0
 15  4  1  0
 16  3  1  0
  5 17  1  1
  6 18  1  6
 19  1  1  0
 20 24  1  0
 21 23  1  0
 22 14  1  0
 23 16  1  0
 24 15  1  0
 25  6  1  0
 26 19  1  0
 27 26  1  0
 28 10  2  0
 29 10  2  0
  7 30  1  6
  8 31  1  1
 32 10  1  0
 33 10  1  0
  9 34  1  1
 11 35  1  6
 12 36  1  1
 25 37  1  1
 26 38  1  1
 19 39  1  6
 21 40  1  1
 20 41  1  6
 23 42  1  1
 22 43  1  6
 24 44  1  1
 45 42  1  0
 46 44  1  0
 47 43  1  0
 27 25  1  0
 22  5  1  0
 12 20  1  0
 11 21  1  0
M  END
>  <ID>  (715) 


>  <MOLENAME>  (715) 
PAROMOMYCIN SULFATE

>  <therap>  (715) 
antibacterial, antiamebic

>  <ref>  (715) 
Gynecol Prat 15:247 (1964); Genitourin Med 73:397 (1997); Clin Infect Dis 49:914 (2009)

>  <cas#>  (715) 
1263-89-4, 7542-37-2 [paromomycin], 59-04-1 [paromomycin, replaced]

>  <source>  (715) 
Streptomyces rimosis paramomycinus

>  <status>  (715) 
USP, INN, BAN

>  <tradename>  (715) 
HUMATIN

>  <SMILES>  (715) 
NC[C@@H]1O[C@H](O[C@@H]2[C@@H](CO)OC(O[C@@H]3[C@@H](O)[C@H](N)C[C@H](N)[C@H]3O[C@H]3O[C@H](CO)[C@@H](O)[C@H](O)[C@H]3N)[C@@H]2O)[C@H](N)[C@@H](O)[C@@H]1O

>  <standardized_failed>  (715) 
False

$$$$

     RDKit          2D

 19 19  0  0  0  0  0  0  0  0999 V2000
    5.3042   -5.3917    0.0000 N   0  0  0  0  0  0  0  0  0  0  0  0
    5.3042   -6.2167    0.0000 C   0  0  0  0  0  0  0  0  0  0  0  0
    4.5875   -4.1542    0.0000 C   0  0  0  0  0  0  0  0  0  0  0  0
    3.9667   -3.5917    0.0000 S   0  0  0  0  0  0  0  0  0  0  0  0
    4.5875   -4.9792    0.0000 C   0  0  0  0  0  0  0  0  0  0  0  0
    4.5875   -6.6292    0.0000 N   0  0  0  0  0  0  0  0  0  0  0  0
    4.3042   -2.8542    0.0000 C   0  0  0  0  0  0  0  0  0  0  0  0
    5.3000   -3.7417    0.0000 C   0  0  0  0  0  0  0  0  0  0  0  0
    6.0167   -4.9792    0.0000 C   0  0  0  0  0  0  0  0  0  0  0  0
    5.1250   -2.9292    0.0000 C   0  0  0  0  0  0  0  0  0  0  0  0
    7.4500   -4.9792    0.0000 N   0  0  0  0  0  0  0  0  0  0  0  0
    6.7292   -5.3917    0.0000 C   0  0  0  0  0  0  0  0  0  0  0  0
    8.0417   -6.6167    0.0000 Cl  0  0  0  0  0  0  0  0  0  0  0  0
    6.0167   -6.6292    0.0000 C   0  0  0  0  0  0  0  0  0  0  0  0
    4.5875   -7.4667    0.0000 C   0  0  0  0  0  0  0  0  0  0  0  0
    7.4500   -4.1542    0.0000 C   0  0  0  0  0  0  0  0  0  0  0  0
    8.1667   -5.3917    0.0000 C   0  0  0  0  0  0  0  0  0  0  0  0
    6.0167   -7.4667    0.0000 C   0  0  0  0  0  0  0  0  0  0  0  0
    5.3042   -7.8792    0.0000 C   0  0  0  0  0  0  0  0  0  0  0  0
  2  1  1  0
  3  5  1  0
  4  3  1  0
  5  1  1  0
  6  2  2  0
  7  4  1  0
  8  3  2  0
  9  1  1  0
 10  8  1  0
 11 12  1  0
 12  9  1  0
 14  2  1  0
 15  6  1  0
 16 11  1  0
 17 11  1  0
 18 14  2  0
 19 18  1  0
 10  7  2  0
 15 19  2  0
M  END
>  <ID>  (716) 


>  <MOLENAME>  (716) 
METHAPYRILENE HYDROCHLORIDE

>  <therap>  (716) 
H1 antihistamine

>  <ref>  (716) 
J. Org. Chem. (1976), 41(13), 2283-8; J. Med. Chem. (1969), 12(5), 832-6; Am. J. Med. Sci. (1948), 216(1), 20-3

>  <cas#>  (716) 
135-23-9, 91-80-5 [methapyrilene]

>  <source>  (716) 
synthetic

>  <status>  (716) 
USP-XX, INN, BAN

>  <tradename>  (716) 
THENYLENE

>  <SMILES>  (716) 
CN(C)CCN(Cc1cccs1)c1ncccc1

>  <standardized_failed>  (716) 
False

$$$$

     RDKit          2D

 83 82  0  1  0  0  0  0  0  0999 V2000
   -2.0264    0.2792    0.0000 C   0  0  0  0  0  0  0  0  0  0  0  0
   -2.0276   -0.5482    0.0000 C   0  0  0  0  0  0  0  0  0  0  0  0
   -1.3128   -0.9610    0.0000 C   0  0  0  0  0  0  0  0  0  0  0  0
   -0.5963   -0.5477    0.0000 C   0  0  0  0  0  0  0  0  0  0  0  0
   -0.5992    0.2828    0.0000 C   0  0  0  0  0  0  0  0  0  0  0  0
   -1.3146    0.6920    0.0000 C   0  0  0  0  0  0  0  0  0  0  0  0
    0.1137    0.6980    0.0000 C   0  0  0  0  0  0  0  0  0  0  0  0
    1.2714    0.6841    0.0000 C   0  0  0  0  0  0  0  0  0  0  0  0
   -3.2827    0.7832    0.0000 C   0  0  0  0  0  0  0  0  0  0  0  0
   -1.3170    1.5170    0.0000 O   0  0  0  0  0  0  0  0  0  0  0  0
   -1.3167   -1.7792    0.0000 C   0  0  0  0  0  0  0  0  0  0  0  0
   -0.6042   -2.1875    0.0000 C   0  0  0  0  0  0  0  0  0  0  0  0
   -0.6042   -3.0083    0.0000 C   0  0  0  0  0  0  0  0  0  0  0  0
    0.1083   -3.4167    0.0000 C   0  0  0  0  0  0  0  0  0  0  0  0
    0.1083   -4.2375    0.0000 C   0  0  0  0  0  0  0  0  0  0  0  0
   -0.6042   -4.6500    0.0000 C   0  0  0  0  0  0  0  0  0  0  0  0
   -0.6042   -5.4708    0.0000 C   0  0  0  0  0  0  0  0  0  0  0  0
   -1.3167   -5.8833    0.0000 C   0  0  0  0  0  0  0  0  0  0  0  0
   -2.0327    1.9273    0.0000 C   0  0  0  0  0  0  0  0  0  0  0  0
   -4.0417   -7.2458    0.0000 C   0  0  0  0  0  0  0  0  0  0  0  0
   -3.5000   -7.5583    0.0000 C   0  0  0  0  0  0  0  0  0  0  0  0
   -2.9583   -7.2458    0.0000 O   0  0  0  0  0  0  0  0  0  0  0  0
   -2.4208   -7.5542    0.0000 C   0  0  0  0  0  0  0  0  0  0  0  0
   -1.8792   -7.2417    0.0000 C   0  0  0  0  0  0  0  0  0  0  0  0
   -1.3375   -7.5500    0.0000 O   0  0  0  0  0  0  0  0  0  0  0  0
   -0.7958   -7.2375    0.0000 C   0  0  0  0  0  0  0  0  0  0  0  0
   -0.2542   -7.5500    0.0000 C   0  0  0  0  0  0  0  0  0  0  0  0
    0.2875   -7.2333    0.0000 O   0  0  0  0  0  0  0  0  0  0  0  0
    0.8292   -7.5458    0.0000 C   0  0  0  0  0  0  0  0  0  0  0  0
    1.3708   -7.2333    0.0000 C   0  0  0  0  0  0  0  0  0  0  0  0
    1.9125   -7.5417    0.0000 O   0  0  0  0  0  0  0  0  0  0  0  0
    2.4542   -7.2292    0.0000 C   0  0  0  0  0  0  0  0  0  0  0  0
    2.9917   -7.5375    0.0000 C   0  0  0  0  0  0  0  0  0  0  0  0
    3.5333   -7.2250    0.0000 O   0  0  0  0  0  0  0  0  0  0  0  0
    4.0750   -7.5333    0.0000 C   0  0  0  0  0  0  0  0  0  0  0  0
    4.0750   -8.1583    0.0000 C   0  0  0  0  0  0  0  0  0  0  0  0
    3.5333   -8.4667    0.0000 O   0  0  0  0  0  0  0  0  0  0  0  0
    3.5333   -9.0917    0.0000 C   0  0  0  0  0  0  0  0  0  0  0  0
    2.9917   -9.4042    0.0000 C   0  0  0  0  0  0  0  0  0  0  0  0
    2.4542   -9.0917    0.0000 O   0  0  0  0  0  0  0  0  0  0  0  0
    1.9125   -9.4042    0.0000 C   0  0  0  0  0  0  0  0  0  0  0  0
    1.3708   -9.0917    0.0000 C   0  0  0  0  0  0  0  0  0  0  0  0
    0.8292   -9.4042    0.0000 O   0  0  0  0  0  0  0  0  0  0  0  0
    0.2875   -9.0917    0.0000 C   0  0  0  0  0  0  0  0  0  0  0  0
   -0.2542   -9.4042    0.0000 C   0  0  0  0  0  0  0  0  0  0  0  0
   -0.7958   -9.0917    0.0000 O   0  0  0  0  0  0  0  0  0  0  0  0
   -1.3375   -9.4042    0.0000 C   0  0  0  0  0  0  0  0  0  0  0  0
   -1.8792   -9.0917    0.0000 C   0  0  0  0  0  0  0  0  0  0  0  0
   -2.4208   -9.4042    0.0000 O   0  0  0  0  0  0  0  0  0  0  0  0
   -5.4764    0.2209    0.0000 C   0  0  0  0  0  0  0  0  0  0  0  0
   -5.4776   -0.6065    0.0000 C   0  0  0  0  0  0  0  0  0  0  0  0
   -4.7628   -1.0194    0.0000 C   0  0  0  0  0  0  0  0  0  0  0  0
   -4.0463   -0.6060    0.0000 C   0  0  0  0  0  0  0  0  0  0  0  0
   -4.0492    0.2245    0.0000 C   0  0  0  0  0  0  0  0  0  0  0  0
   -4.7646    0.6336    0.0000 C   0  0  0  0  0  0  0  0  0  0  0  0
   -3.3363    0.6397    0.0000 C   0  0  0  0  0  0  0  0  0  0  0  0
   -4.7670    1.4586    0.0000 O   0  0  0  0  0  0  0  0  0  0  0  0
   -4.7667   -1.8375    0.0000 C   0  0  0  0  0  0  0  0  0  0  0  0
   -4.0542   -2.2458    0.0000 C   0  0  0  0  0  0  0  0  0  0  0  0
   -4.0542   -3.0667    0.0000 C   0  0  0  0  0  0  0  0  0  0  0  0
   -3.3417   -3.4750    0.0000 C   0  0  0  0  0  0  0  0  0  0  0  0
   -3.3417   -4.2958    0.0000 C   0  0  0  0  0  0  0  0  0  0  0  0
   -4.0542   -4.7083    0.0000 C   0  0  0  0  0  0  0  0  0  0  0  0
   -4.0542   -5.5292    0.0000 C   0  0  0  0  0  0  0  0  0  0  0  0
   -4.7667   -5.9417    0.0000 C   0  0  0  0  0  0  0  0  0  0  0  0
   -5.4827    1.8690    0.0000 C   0  0  0  0  0  0  0  0  0  0  0  0
    2.2319    0.3209    0.0000 C   0  0  0  0  0  0  0  0  0  0  0  0
    2.2307   -0.5065    0.0000 C   0  0  0  0  0  0  0  0  0  0  0  0
    2.9456   -0.9194    0.0000 C   0  0  0  0  0  0  0  0  0  0  0  0
    3.6620   -0.5060    0.0000 C   0  0  0  0  0  0  0  0  0  0  0  0
    3.6591    0.3245    0.0000 C   0  0  0  0  0  0  0  0  0  0  0  0
    2.9438    0.7336    0.0000 C   0  0  0  0  0  0  0  0  0  0  0  0
    2.9413    1.5586    0.0000 O   0  0  0  0  0  0  0  0  0  0  0  0
    2.9417   -1.7375    0.0000 C   0  0  0  0  0  0  0  0  0  0  0  0
    3.6542   -2.1458    0.0000 C   0  0  0  0  0  0  0  0  0  0  0  0
    3.6542   -2.9667    0.0000 C   0  0  0  0  0  0  0  0  0  0  0  0
    4.3667   -3.3750    0.0000 C   0  0  0  0  0  0  0  0  0  0  0  0
    4.3667   -4.1958    0.0000 C   0  0  0  0  0  0  0  0  0  0  0  0
    3.6542   -4.6083    0.0000 C   0  0  0  0  0  0  0  0  0  0  0  0
    3.6542   -5.4292    0.0000 C   0  0  0  0  0  0  0  0  0  0  0  0
    2.9417   -5.8417    0.0000 C   0  0  0  0  0  0  0  0  0  0  0  0
    2.2256    1.9690    0.0000 C   0  0  0  0  0  0  0  0  0  0  0  0
    1.5173    0.7332    0.0000 C   0  0  0  0  0  0  0  0  0  0  0  0
 28 29  1  0
 29 30  1  0
 30 31  1  0
 31 32  1  0
 32 33  1  0
 33 34  1  0
 34 35  1  0
 35 36  1  0
 36 37  1  0
 37 38  1  0
 38 39  1  0
 39 40  1  0
 40 41  1  0
 41 42  1  0
 42 43  1  0
 43 44  1  0
 44 45  1  0
 45 46  1  0
 46 47  1  0
  4  5  2  0
 17 18  1  0
 10 19  1  0
  5  6  1  0
  6  1  2  0
  5  7  1  0
  7  8  1  0
  1  9  1  0
  6 10  1  0
  3 11  1  0
  1  2  1  0
 11 12  1  0
 12 13  1  0
  2  3  2  0
 13 14  1  0
 14 15  1  0
  3  4  1  0
 50 51  2  0
 51 52  1  0
 52 53  2  0
 53 54  1  0
 54 55  2  0
 55 50  1  0
 54 56  1  0
 55 57  1  0
 52 58  1  0
 58 59  1  0
 59 60  1  0
 60 61  1  0
 61 62  1  0
 62 63  1  0
 63 64  1  0
 64 65  1  0
 57 66  1  0
 15 16  1  0
 16 17  1  0
 47 48  1  0
 48 49  1  0
 20 21  1  0
 21 22  1  0
 22 23  1  0
 23 24  1  0
 24 25  1  0
 25 26  1  0
 26 27  1  0
 27 28  1  0
 67 68  2  0
 68 69  1  0
 69 70  2  0
 70 71  1  0
 71 72  2  0
 72 67  1  0
 72 73  1  0
 69 74  1  0
 74 75  1  0
 75 76  1  0
 76 77  1  0
 77 78  1  0
 78 79  1  0
 79 80  1  0
 80 81  1  0
 73 82  1  0
 67 83  1  0
M  STY  1   1 SRU
M  SLB  1   1   1
M  SCN  1   1 HT 
M  SAL   1 15   1   2   3   4   5   6   7  10  11  12  13  14  15  16  17
M  SAL   1  2  18  19
M  SBL   1  2  27  26
M  SDI   1  4   -3.1900   -6.3000   -3.1900    2.3500
M  SDI   1  4    1.2500    2.3500    1.2500   -6.3000
M  END
>  <ID>  (717) 


>  <MOLENAME>  (717) 
TYLOXAPOL

>  <therap>  (717) 
polymeric nonionic detergent

>  <ref>  (717) 
J Exp Med 93:373 (1951); Xenobiotica 25:521 (1995)

>  <cas#>  (717) 
25301-02-4

>  <source>  (717) 
synthetic

>  <status>  (717) 
USP, INN, BAN

>  <tradename>  (717) 
SUPERINONE

>  <SMILES>  (717) 
CCCCCCCCc1cc(C)c(OC)c(CC)c1.CCCCCCCCc1cc(C)c(OC)cc1.CCCCCCCCc1ccc(OC)c(C)c1.CCOCCOCCOCCOCCOCCOCCOCCOCCOCCO

>  <standardized_failed>  (717) 
False

$$$$

     RDKit          2D

 15 15  0  0  0  0  0  0  0  0999 V2000
    9.2083   -1.6500    0.0000 N   0  0  0  0  0  0  0  0  0  0  0  0
    5.6417   -1.2542    0.0000 C   0  0  0  0  0  0  0  0  0  0  0  0
    4.9333   -0.8458    0.0000 C   0  0  0  0  0  0  0  0  0  0  0  0
    9.2125   -2.4708    0.0000 O   0  0  0  0  0  0  0  0  0  0  0  0
    9.9167   -1.2375    0.0000 O   0  0  0  0  0  0  0  0  0  0  0  0
    5.6458   -2.0792    0.0000 O   0  0  0  0  0  0  0  0  0  0  0  0
    4.2167    0.3958    0.0000 N   0  0  0  0  0  0  0  0  0  0  0  0
    8.4917   -1.2417    0.0000 O   0  0  0  0  0  0  0  0  0  0  0  0
    6.3542   -0.8417    0.0000 N   0  0  0  0  0  0  0  0  0  0  0  0
    4.9333   -0.0167    0.0000 C   0  0  0  0  0  0  0  0  0  0  0  0
    7.7792   -0.8375    0.0000 C   0  0  0  0  0  0  0  0  0  0  0  0
    4.2167   -1.2583    0.0000 C   0  0  0  0  0  0  0  0  0  0  0  0
    7.0667   -1.2500    0.0000 C   0  0  0  0  0  0  0  0  0  0  0  0
    3.5042   -0.0167    0.0000 C   0  0  0  0  0  0  0  0  0  0  0  0
    3.5042   -0.8458    0.0000 C   0  0  0  0  0  0  0  0  0  0  0  0
  2  9  1  0
  3  2  1  0
  4  1  1  0
  5  1  2  0
  6  2  2  0
  7 10  1  0
  8  1  1  0
  9 13  1  0
 10  3  2  0
 11  8  1  0
 12  3  1  0
 13 11  1  0
 14  7  2  0
 15 12  2  0
 15 14  1  0
M  CHG  2   1   1   4  -1
M  END
>  <ID>  (718) 


>  <MOLENAME>  (718) 
NICORANDIL

>  <therap>  (718) 
vasodilator

>  <ref>  (718) 
Drugs (2004), 64(17), 1941-1955; J. Cardiovasc. Pharmacol. (1980), 3(1), 139-50; Arzneim. Forsch. (1979), 29(10), 1530-3

>  <cas#>  (718) 
65141-46-0

>  <source>  (718) 
synthetic

>  <status>  (718) 
USAN, INN, BAN, JAN

>  <tradename>  (718) 
nan

>  <SMILES>  (718) 
O=C(NCCO[N+](=O)[O-])c1cnccc1

>  <standardized_failed>  (718) 
False

$$$$

     RDKit          2D

 25 27  0  0  0  0  0  0  0  0999 V2000
    6.1625   -4.1417    0.0000 C   0  0  0  0  0  0  0  0  0  0  0  0
    6.1625   -3.3167    0.0000 C   0  0  0  0  0  0  0  0  0  0  0  0
    5.4500   -4.5542    0.0000 C   0  0  0  0  0  0  0  0  0  0  0  0
    5.4500   -2.9042    0.0000 S   0  0  0  0  0  0  0  0  0  0  0  0
    4.7292   -4.1417    0.0000 C   0  0  0  0  0  0  0  0  0  0  0  0
    4.7292   -3.3167    0.0000 C   0  0  0  0  0  0  0  0  0  0  0  0
    6.8750   -2.9042    0.0000 C   0  0  0  0  0  0  0  0  0  0  0  0
    6.8750   -4.5542    0.0000 C   0  0  0  0  0  0  0  0  0  0  0  0
    5.4500   -5.3792    0.0000 O   0  0  0  0  0  0  0  0  0  0  0  0
    7.5917   -3.3167    0.0000 C   0  0  0  0  0  0  0  0  0  0  0  0
    7.5917   -4.1417    0.0000 C   0  0  0  0  0  0  0  0  0  0  0  0
    6.8750   -5.3792    0.0000 N   0  0  0  0  0  0  0  0  0  0  0  0
    5.4500   -7.0375    0.0000 N   0  0  0  0  0  0  0  0  0  0  0  0
    4.0167   -4.5542    0.0000 C   0  0  0  0  0  0  0  0  0  0  0  0
    6.1625   -5.7917    0.0000 C   0  0  0  0  0  0  0  0  0  0  0  0
    6.8750   -2.0792    0.0000 C   0  0  0  0  0  0  0  0  0  0  0  0
    4.0167   -2.9042    0.0000 C   0  0  0  0  0  0  0  0  0  0  0  0
    6.1625   -1.6667    0.0000 O   0  0  0  0  0  0  0  0  0  0  0  0
    6.1625   -6.6250    0.0000 C   0  0  0  0  0  0  0  0  0  0  0  0
    5.4500   -7.8667    0.0000 C   0  0  0  0  0  0  0  0  0  0  0  0
    4.7292   -6.6250    0.0000 C   0  0  0  0  0  0  0  0  0  0  0  0
    3.3042   -4.1417    0.0000 C   0  0  0  0  0  0  0  0  0  0  0  0
    4.7292   -5.7917    0.0000 C   0  0  0  0  0  0  0  0  0  0  0  0
    4.7375   -8.2792    0.0000 C   0  0  0  0  0  0  0  0  0  0  0  0
    3.3042   -3.3167    0.0000 C   0  0  0  0  0  0  0  0  0  0  0  0
  2  1  2  0
  3  1  1  0
  4  2  1  0
  5  3  1  0
  6  5  2  0
  7  2  1  0
  8  1  1  0
  9  3  2  0
 10 11  1  0
 11  8  2  0
 12  8  1  0
 13 19  1  0
 14  5  1  0
 15 12  1  0
 16  7  1  0
 17  6  1  0
 18 16  1  0
 19 15  1  0
 20 13  1  0
 21 13  1  0
 22 14  2  0
 23 21  1  0
 24 20  1  0
 25 22  1  0
  7 10  2  0
  6  4  1  0
 17 25  2  0
M  END
>  <ID>  (719) 


>  <MOLENAME>  (719) 
HYCANTHONE

>  <therap>  (719) 
anthelmintic, hepatotoxic

>  <ref>  (719) 
Mol. Biochem. Parasitol. (1990), 43(1), 89-95; J. Med. Chem. (1988), 31(1), 254-60; J. Med. Chem. (1967), 10(5), 867-76

>  <cas#>  (719) 
3105-97-3

>  <source>  (719) 
synthetic; WIN-24933, NSC-134434

>  <status>  (719) 
USAN, INN

>  <tradename>  (719) 
nan

>  <SMILES>  (719) 
CCN(CC)CCNc1ccc(CO)c2c1c(=O)c1c(cccc1)s2

>  <standardized_failed>  (719) 
False

$$$$

     RDKit          2D

 17 18  0  0  0  0  0  0  0  0999 V2000
    6.1917   -2.7792    0.0000 C   0  0  0  0  0  0  0  0  0  0  0  0
    5.4792   -3.0042    0.0000 N   0  0  0  0  0  0  0  0  0  0  0  0
    6.8292   -3.9042    0.0000 C   0  0  0  0  0  0  0  0  0  0  0  0
    6.1917   -2.0292    0.0000 N   0  0  0  0  0  0  0  0  0  0  0  0
    6.1917   -4.2792    0.0000 C   0  0  0  0  0  0  0  0  0  0  0  0
    6.8292   -3.1542    0.0000 C   0  0  0  0  0  0  0  0  0  0  0  0
    6.1917   -5.0292    0.0000 C   0  0  0  0  0  0  0  0  0  0  0  0
    7.8875   -2.3042    0.0000 Cl  0  0  0  0  0  0  0  0  0  0  0  0
    5.0417   -2.3917    0.0000 C   0  0  0  0  0  0  0  0  0  0  0  0
    7.4792   -4.2792    0.0000 C   0  0  0  0  0  0  0  0  0  0  0  0
    5.4792   -1.8042    0.0000 C   0  0  0  0  0  0  0  0  0  0  0  0
    7.4792   -5.0292    0.0000 C   0  0  0  0  0  0  0  0  0  0  0  0
    5.5417   -3.9042    0.0000 C   0  0  0  0  0  0  0  0  0  0  0  0
    6.8292   -5.4042    0.0000 C   0  0  0  0  0  0  0  0  0  0  0  0
    5.5417   -5.4042    0.0000 C   0  0  0  0  0  0  0  0  0  0  0  0
    4.8917   -4.2792    0.0000 C   0  0  0  0  0  0  0  0  0  0  0  0
    4.8917   -5.0292    0.0000 C   0  0  0  0  0  0  0  0  0  0  0  0
  2  1  2  0
  3  6  1  0
  4  1  1  0
  5  3  1  0
  6  1  1  0
  7  5  2  0
  9  2  1  0
 10  3  2  0
 11  4  1  0
 12 10  1  0
 13  5  1  0
 14 12  2  0
 15  7  1  0
 16 13  2  0
 17 16  1  0
  9 11  1  0
 14  7  1  0
 17 15  2  0
M  END
>  <ID>  (720) 


>  <MOLENAME>  (720) 
NAPHAZOLINE HYDROCHLORIDE

>  <therap>  (720) 
adrenergic agonist, nasal decongestant

>  <ref>  (720) 
Exp. Eye Res. (2001), 72(3), 331-339; Neurosci. Lett. (1980), 20(3), 347-50; Eur. J. Pharmacol. (1976), 36(2), 413-21

>  <cas#>  (720) 
550-99-2, 835-31-4 [naphazoline]

>  <source>  (720) 
synthetic

>  <status>  (720) 
USP, INN, BAN, JAN

>  <tradename>  (720) 
ALBALON

>  <SMILES>  (720) 
c1cc2c(cc1)c(CC1=NCCN1)ccc2

>  <standardized_failed>  (720) 
False

$$$$

     RDKit          2D

 28 29  0  0  0  0  0  0  0  0999 V2000
    3.9292   -2.7875    0.0000 N   0  0  0  0  0  0  0  0  0  0  0  0
    3.3000   -2.3792    0.0000 C   0  0  0  0  0  0  0  0  0  0  0  0
    2.8917   -3.0042    0.0000 C   0  0  0  0  0  0  0  0  0  0  0  0
    4.6583   -2.6375    0.0000 S   0  0  0  0  0  0  0  0  0  0  0  0
    3.5167   -3.4167    0.0000 C   0  0  0  0  0  0  0  0  0  0  0  0
    0.3125   -2.8667    0.0000 C   0  0  0  0  0  0  0  0  0  0  0  0
    0.9375   -3.2750    0.0000 C   0  0  0  0  0  0  0  0  0  0  0  0
   -0.3917   -3.1375    0.0000 N   0  0  0  0  0  0  0  0  0  0  0  0
    2.2292   -3.3417    0.0000 N   0  0  0  0  0  0  0  0  0  0  0  0
    1.6042   -2.9375    0.0000 C   0  0  0  0  0  0  0  0  0  0  0  0
    0.8958   -4.0208    0.0000 N   0  0  0  0  0  0  0  0  0  0  0  0
   -0.8625   -2.5500    0.0000 C   0  0  0  0  0  0  0  0  0  0  0  0
    0.1875   -5.1042    0.0000 C   0  0  0  0  0  0  0  0  0  0  0  0
    0.2750   -2.1167    0.0000 C   0  0  0  0  0  0  0  0  0  0  0  0
   -0.4500   -1.9208    0.0000 S   0  0  0  0  0  0  0  0  0  0  0  0
    0.8292   -5.4750    0.0000 C   0  0  0  0  0  0  0  0  0  0  0  0
    0.2292   -4.3583    0.0000 O   0  0  0  0  0  0  0  0  0  0  0  0
    3.1500   -1.6500    0.0000 O   0  0  0  0  0  0  0  0  0  0  0  0
    4.8083   -3.2458    0.0000 O   0  0  0  0  0  0  0  0  0  0  0  0
    4.5292   -1.8667    0.0000 O   0  0  0  0  0  0  0  0  0  0  0  0
    1.6417   -2.1917    0.0000 O   0  0  0  0  0  0  0  0  0  0  0  0
    5.4042   -2.5625    0.0000 O   0  0  0  0  0  0  0  0  0  0  0  0
    0.8250   -6.2083    0.0000 O   0  0  0  0  0  0  0  0  0  0  0  0
   -1.6125   -2.5875    0.0000 N   0  0  0  0  0  0  0  0  0  0  0  0
    3.6708   -4.1458    0.0000 C   0  0  0  0  0  0  0  0  0  0  0  0
    1.4667   -5.1042    0.0000 O   0  0  0  0  0  0  0  0  0  0  0  0
   -0.4750   -5.4417    0.0000 C   0  0  0  0  0  0  0  0  0  0  0  0
    0.1792   -5.8500    0.0000 C   0  0  0  0  0  0  0  0  0  0  0  0
  2  1  1  0
  3  2  1  0
  4  1  1  0
  5  1  1  0
  6  7  1  0
  7 10  1  0
  8  6  1  0
  3  9  1  6
 10  9  1  0
 11  7  2  0
 12  8  2  0
 13 17  1  0
 14  6  2  0
 15 14  1  0
 16 13  1  0
 17 11  1  0
 18  2  2  0
 19  4  2  0
 20  4  2  0
 21 10  2  0
 22  4  1  0
 23 16  2  0
 24 12  1  0
  5 25  1  1
 26 16  1  0
 27 13  1  0
 28 13  1  0
  5  3  1  0
 12 15  1  0
M  END
>  <ID>  (721) 


>  <MOLENAME>  (721) 
AZTREONAM

>  <therap>  (721) 
antibiotic

>  <ref>  (721) 
J Antimicrob Chemother 8 Suppl E:1 (1981); 9:328 (1982); Rev Infect Dis 13 Suppl 7:S591 (1991)

>  <cas#>  (721) 
78110-38-0

>  <source>  (721) 
synthetic; SQ-26776, UNII-G2B4VE5GH8

>  <status>  (721) 
USP, INN, BAN, JAN

>  <tradename>  (721) 
AZACTAM

>  <SMILES>  (721) 
C[C@H]1[C@H](NC(=O)/C(=N/OC(C)(C)C(=O)O)c2csc(N)n2)C(=O)N1S(=O)(=O)O

>  <standardized_failed>  (721) 
False

$$$$

     RDKit          2D

 25 25  0  0  0  0  0  0  0  0999 V2000
    7.6292   -3.3042    0.0000 C   0  0  0  0  0  0  0  0  0  0  0  0
    7.0417   -3.8875    0.0000 C   0  0  0  0  0  0  0  0  0  0  0  0
    7.4167   -2.5042    0.0000 C   0  0  0  0  0  0  0  0  0  0  0  0
    7.2625   -4.6792    0.0000 C   0  0  0  0  0  0  0  0  0  0  0  0
    8.4292   -3.5167    0.0000 C   0  0  0  0  0  0  0  0  0  0  0  0
    6.6167   -2.2917    0.0000 O   0  0  0  0  0  0  0  0  0  0  0  0
    8.0542   -4.8917    0.0000 C   0  0  0  0  0  0  0  0  0  0  0  0
    5.1292   -5.1875    0.0000 N   0  0  0  0  0  0  0  0  0  0  0  0
    8.6375   -4.3167    0.0000 C   0  0  0  0  0  0  0  0  0  0  0  0
    5.9042   -4.9000    0.0000 C   0  0  0  0  0  0  0  0  0  0  0  0
    6.6792   -5.2667    0.0000 C   0  0  0  0  0  0  0  0  0  0  0  0
    8.0000   -1.9250    0.0000 N   0  0  0  0  0  0  0  0  0  0  0  0
    9.0125   -2.9375    0.0000 O   0  0  0  0  0  0  0  0  0  0  0  0
   10.7292   -3.3667    0.0000 Cl  0  0  0  0  0  0  0  0  0  0  0  0
    3.0667   -4.4667    0.0000 C   0  0  0  0  0  0  0  0  0  0  0  0
    6.6792   -6.0792    0.0000 O   0  0  0  0  0  0  0  0  0  0  0  0
    3.1417   -3.6417    0.0000 C   0  0  0  0  0  0  0  0  0  0  0  0
    3.7417   -4.9375    0.0000 C   0  0  0  0  0  0  0  0  0  0  0  0
    4.5000   -4.6542    0.0000 C   0  0  0  0  0  0  0  0  0  0  0  0
    2.4667   -3.1750    0.0000 C   0  0  0  0  0  0  0  0  0  0  0  0
    3.8917   -3.3000    0.0000 C   0  0  0  0  0  0  0  0  0  0  0  0
    4.6375   -3.8417    0.0000 C   0  0  0  0  0  0  0  0  0  0  0  0
    3.9667   -2.4792    0.0000 C   0  0  0  0  0  0  0  0  0  0  0  0
    2.5417   -2.3500    0.0000 C   0  0  0  0  0  0  0  0  0  0  0  0
    3.2917   -2.0042    0.0000 C   0  0  0  0  0  0  0  0  0  0  0  0
  2  1  2  0
  3  1  1  0
  4  2  1  0
  5  1  1  0
  6  3  2  0
  7  9  1  0
  8 10  1  0
  9  5  2  0
 10 11  1  0
 11  4  1  0
 12  3  1  0
 13  5  1  0
 15 18  1  0
 16 11  1  0
 17 15  1  0
 18 19  1  0
 19  8  1  0
 20 17  2  0
 21 17  1  0
 22 19  1  0
 23 21  2  0
 24 20  1  0
 25 24  2  0
  4  7  2  0
 23 25  1  0
M  END
>  <ID>  (722) 


>  <MOLENAME>  (722) 
LABETALOL HYDROCHLORIDE

>  <therap>  (722) 
adrenergic blocker

>  <ref>  (722) 
Arch. Intern. Med. (1983), 143(3), 485-90; Br. J. Clin. Pharmacol. (1974), 1(6), 505-10; Br. J. Pharmacol. (1972), 45(4), 660-75

>  <cas#>  (722) 
32780-64-6, 36894-69-6 [labetalol]

>  <source>  (722) 
synthetic; Sch-15719W, AH-5158A

>  <status>  (722) 
USP, INN, BAN, JAN

>  <tradename>  (722) 
NORMODYNE

>  <SMILES>  (722) 
CC(CCc1ccccc1)NCC(O)c1ccc(O)c(C(N)=O)c1

>  <standardized_failed>  (722) 
False

$$$$

     RDKit          2D

 21 20  0  0  0  0  0  0  0  0999 V2000
    6.8250   -2.5417    0.0000 C   0  0  0  0  0  0  0  0  0  0  0  0
    7.5333   -2.9500    0.0000 N   0  0  0  0  0  0  0  0  0  0  0  0
    8.2458   -2.5417    0.0000 C   0  0  0  0  0  0  0  0  0  0  0  0
    6.8250   -1.7167    0.0000 C   0  0  0  0  0  0  0  0  0  0  0  0
    8.2458   -1.7167    0.0000 C   0  0  0  0  0  0  0  0  0  0  0  0
    7.5333   -1.3000    0.0000 C   0  0  0  0  0  0  0  0  0  0  0  0
    6.1125   -2.9542    0.0000 C   0  0  0  0  0  0  0  0  0  0  0  0
    8.9625   -2.9542    0.0000 O   0  0  0  0  0  0  0  0  0  0  0  0
    7.5333   -3.7750    0.0000 O   0  0  0  0  0  0  0  0  0  0  0  0
    3.9750   -2.5500    0.0000 C   0  0  0  0  0  0  0  0  0  0  0  0
   10.0167   -1.0167    0.0000 C   0  0  0  0  0  0  0  0  0  0  0  0
    4.6875   -2.9542    0.0000 C   0  0  0  0  0  0  0  0  0  0  0  0
    5.4000   -2.5417    0.0000 C   0  0  0  0  0  0  0  0  0  0  0  0
   10.0167   -0.1917    0.0000 N   0  0  0  0  0  0  0  0  0  0  0  0
   10.7292   -1.4292    0.0000 O   0  0  0  0  0  0  0  0  0  0  0  0
    7.5333   -0.4750    0.0000 C   0  0  0  0  0  0  0  0  0  0  0  0
    3.2625   -2.9625    0.0000 C   0  0  0  0  0  0  0  0  0  0  0  0
    3.9708   -1.7250    0.0000 C   0  0  0  0  0  0  0  0  0  0  0  0
    3.2542   -2.1375    0.0000 C   0  0  0  0  0  0  0  0  0  0  0  0
    9.3042   -1.4292    0.0000 C   0  0  0  0  0  0  0  0  0  0  0  0
    5.3958   -1.7167    0.0000 C   0  0  0  0  0  0  0  0  0  0  0  0
  2  1  1  0
  3  2  1  0
  4  1  2  0
  5  3  1  0
  6  4  1  0
  7  1  1  0
  8  3  2  0
  9  2  1  0
 10 12  1  0
 12 13  1  0
 13  7  1  0
 14 11  1  0
 15 11  1  0
 16  6  1  0
 17 10  1  0
 18 10  1  0
 19 10  1  0
 20 11  1  0
 21 13  1  0
  6  5  2  0
M  END
>  <ID>  (723) 


>  <MOLENAME>  (723) 
PIROCTONE OLAMINE

>  <therap>  (723) 
antiseborrheic

>  <ref>  (723) 
J Soc Cosmet Chem 32:327 (1981)

>  <cas#>  (723) 
68890-66-4

>  <source>  (723) 
synthetic

>  <status>  (723) 
USAN

>  <tradename>  (723) 
OCTOPIROX

>  <SMILES>  (723) 
CC(N)O.Cc1cc(=O)n(O)c(CC(C)CC(C)(C)C)c1

>  <standardized_failed>  (723) 
False

$$$$

     RDKit          2D

 17 16  0  0  0  0  0  0  0  0999 V2000
    6.6625   -5.2292    0.0000 S   0  0  0  0  0  0  0  0  0  0  0  0
    5.9875   -5.2292    0.0000 O   0  0  0  0  0  0  0  0  0  0  0  0
    6.6625   -4.5542    0.0000 O   0  0  0  0  0  0  0  0  0  0  0  0
    7.3292   -5.2292    0.0000 O   0  0  0  0  0  0  0  0  0  0  0  0
    6.6625   -5.9042    0.0000 O   0  0  0  0  0  0  0  0  0  0  0  0
    3.3917   -6.0000    0.0000 C   0  0  0  0  0  0  0  0  0  0  0  0
    4.1125   -6.4125    0.0000 N   0  0  0  0  0  0  0  0  0  0  0  0
    3.4000   -5.1750    0.0000 C   0  0  0  0  0  0  0  0  0  0  0  0
    2.6792   -4.7625    0.0000 C   0  0  0  0  0  0  0  0  0  0  0  0
    3.9792   -5.4167    0.0000 C   0  0  0  0  0  0  0  0  0  0  0  0
    2.6792   -6.4125    0.0000 C   0  0  0  0  0  0  0  0  0  0  0  0
    4.1042   -7.2375    0.0000 C   0  0  0  0  0  0  0  0  0  0  0  0
    1.9667   -5.1750    0.0000 C   0  0  0  0  0  0  0  0  0  0  0  0
    2.6792   -3.9375    0.0000 C   0  0  0  0  0  0  0  0  0  0  0  0
    1.2625   -4.7625    0.0000 C   0  0  0  0  0  0  0  0  0  0  0  0
    1.9667   -3.5250    0.0000 C   0  0  0  0  0  0  0  0  0  0  0  0
    1.2625   -3.9375    0.0000 C   0  0  0  0  0  0  0  0  0  0  0  0
  2  1  2  0
  3  1  2  0
  4  1  1  0
  5  1  1  0
  7  6  1  0
  8  6  1  0
  9  8  1  0
 10  6  1  0
 11  6  1  0
 12  7  1  0
 13  9  2  0
 14  9  1  0
 15 13  1  0
 16 14  2  0
 17 16  1  0
 17 15  2  0
M  END
>  <ID>  (724) 


>  <MOLENAME>  (724) 
MEPHENTERMINE SULFATE

>  <therap>  (724) 
vasoconstrictor

>  <ref>  (724) 
Am. J. Cardiol. (1965), 16(6), 841-6; Arzneim. Forsch. (1962), 12, 902-7; J. Am. Med. Assoc. (1959), 169(15), 1742-7

>  <cas#>  (724) 
1212-72-2, 6190-60-9 [dihydrate], 100-92-5 [mephentermine]

>  <source>  (724) 
synthetic

>  <status>  (724) 
USP-XXIII, INN, BAN

>  <tradename>  (724) 
WYAMINE

>  <SMILES>  (724) 
CNC(C)(C)Cc1ccccc1

>  <standardized_failed>  (724) 
False

$$$$

     RDKit          2D

 22 21  0  0  0  0  0  0  0  0999 V2000
    3.4292   -1.0042    0.0000 C   0  0  0  0  0  0  0  0  0  0  0  0
    4.0167   -0.6667    0.0000 C   0  0  0  0  0  0  0  0  0  0  0  0
    2.8292   -0.6667    0.0000 C   0  0  0  0  0  0  0  0  0  0  0  0
    4.6167   -1.0042    0.0000 C   0  0  0  0  0  0  0  0  0  0  0  0
   -0.1083   -0.3542    0.0000 C   0  0  0  0  0  0  0  0  0  0  0  0
   -0.1083    0.4708    0.0000 C   0  0  0  0  0  0  0  0  0  0  0  0
    0.6042   -0.7667    0.0000 C   0  0  0  0  0  0  0  0  0  0  0  0
    4.6167   -1.7042    0.0000 O   0  0  0  0  0  0  0  0  0  0  0  0
    2.2292   -1.0042    0.0000 O   0  0  0  0  0  0  0  0  0  0  0  0
    3.4292   -1.7042    0.0000 O   0  0  0  0  0  0  0  0  0  0  0  0
    4.0167    0.0208    0.0000 O   0  0  0  0  0  0  0  0  0  0  0  0
    0.6042    0.8833    0.0000 C   0  0  0  0  0  0  0  0  0  0  0  0
    5.2167   -0.6667    0.0000 O   0  0  0  0  0  0  0  0  0  0  0  0
    2.8292    0.0208    0.0000 O   0  0  0  0  0  0  0  0  0  0  0  0
    0.6042   -1.5917    0.0000 C   0  0  0  0  0  0  0  0  0  0  0  0
    0.6042    1.7083    0.0000 N   0  0  0  0  0  0  0  0  0  0  0  0
   -0.8208    0.8833    0.0000 O   0  0  0  0  0  0  0  0  0  0  0  0
    1.3167   -2.0042    0.0000 O   0  0  0  0  0  0  0  0  0  0  0  0
   -0.8208   -0.7667    0.0000 C   0  0  0  0  0  0  0  0  0  0  0  0
   -0.8208   -1.5917    0.0000 C   0  0  0  0  0  0  0  0  0  0  0  0
   -0.1083   -2.0042    0.0000 C   0  0  0  0  0  0  0  0  0  0  0  0
    1.3167    0.4708    0.0000 C   0  0  0  0  0  0  0  0  0  0  0  0
  2  1  1  0
  3  1  1  0
  4  2  1  0
  6  5  1  0
  7  5  2  0
  8  4  2  0
  9  3  2  0
  1 10  1  1
  2 11  1  1
 12  6  1  0
 13  4  1  0
 14  3  1  0
 15  7  1  0
 12 16  1  0
  6 17  1  1
 18 15  1  0
 19  5  1  0
 20 19  2  0
 21 20  1  0
 12 22  1  1
 15 21  2  0
M  END
>  <ID>  (725) 


>  <MOLENAME>  (725) 
METARAMINOL BITARTRATE

>  <therap>  (725) 
antihypotensive

>  <ref>  (725) 
Life Sci. (1981), 29(12), 1271-5; Life Sci. (1964), 3, 695-702; Am. J. Cardiol. (1964), 13, 10-4

>  <cas#>  (725) 
33402-03-8

>  <source>  (725) 
synthetic

>  <status>  (725) 
USP, INN, BAN, JAN

>  <tradename>  (725) 
ARAMINE

>  <SMILES>  (725) 
CC(N)[C@H](O)c1cc(O)ccc1

>  <standardized_failed>  (725) 
False

$$$$

     RDKit          2D

 14 14  0  0  0  0  0  0  0  0999 V2000
    5.1917   -1.9292    0.0000 C   0  0  0  0  0  0  0  0  0  0  0  0
    4.5250   -1.4417    0.0000 S   0  0  0  0  0  0  0  0  0  0  0  0
    3.8625   -1.9292    0.0000 C   0  0  0  0  0  0  0  0  0  0  0  0
    5.9792   -1.6750    0.0000 S   0  0  0  0  0  0  0  0  0  0  0  0
    4.9375   -2.7167    0.0000 N   0  0  0  0  0  0  0  0  0  0  0  0
    4.1125   -2.7167    0.0000 N   0  0  0  0  0  0  0  0  0  0  0  0
    3.0792   -1.6750    0.0000 N   0  0  0  0  0  0  0  0  0  0  0  0
    2.9042   -0.8667    0.0000 C   0  0  0  0  0  0  0  0  0  0  0  0
    6.5667   -1.0875    0.0000 O   0  0  0  0  0  0  0  0  0  0  0  0
    5.3917   -1.0875    0.0000 O   0  0  0  0  0  0  0  0  0  0  0  0
    6.5917   -2.2292    0.0000 N   0  0  0  0  0  0  0  0  0  0  0  0
    3.5167   -0.3167    0.0000 O   0  0  0  0  0  0  0  0  0  0  0  0
    3.6292   -3.3792    0.0000 C   0  0  0  0  0  0  0  0  0  0  0  0
    2.1167   -0.6125    0.0000 C   0  0  0  0  0  0  0  0  0  0  0  0
  2  1  1  0
  3  2  1  0
  4  1  1  0
  5  1  2  0
  6  5  1  0
  7  3  2  0
  8  7  1  0
  9  4  2  0
 10  4  2  0
 11  4  1  0
 12  8  2  0
 13  6  1  0
 14  8  1  0
  6  3  1  0
M  END
>  <ID>  (726) 


>  <MOLENAME>  (726) 
METHAZOLAMIDE

>  <therap>  (726) 
carbonic anhydrase inhibitor

>  <ref>  (726) 
Chem. Pharm. Bull. (1969), 17(10), 2000-7; J. Med. Chem. (1968), 11(2), 228-32

>  <cas#>  (726) 
554-57-4

>  <source>  (726) 
synthetic

>  <status>  (726) 
USP, INN, BAN, JAN

>  <tradename>  (726) 
nan

>  <SMILES>  (726) 
CC(=O)/N=c1\sc(S(N)(=O)=O)nn1C

>  <standardized_failed>  (726) 
False

$$$$

     RDKit          2D

 32 32  0  0  0  0  0  0  0  0999 V2000
   -1.5958   -2.9875    0.0000 C   0  0  0  0  0  0  0  0  0  0  0  0
   -0.8750   -2.5750    0.0000 C   0  0  0  0  0  0  0  0  0  0  0  0
   -0.8750   -1.7500    0.0000 C   0  0  0  0  0  0  0  0  0  0  0  0
   -0.1625   -1.3292    0.0000 C   0  0  0  0  0  0  0  0  0  0  0  0
    5.5417   -1.3167    0.0000 N   0  0  0  0  0  0  0  0  0  0  0  0
   -2.3083   -2.5750    0.0000 C   0  0  0  0  0  0  0  0  0  0  0  0
    0.5542   -1.7417    0.0000 C   0  0  0  0  0  0  0  0  0  0  0  0
   -0.1625   -2.9875    0.0000 C   0  0  0  0  0  0  0  0  0  0  0  0
    5.4000   -2.6542    0.0000 Cl  0  0  0  0  0  0  0  0  0  0  0  0
   -3.0208   -2.9875    0.0000 C   0  0  0  0  0  0  0  0  0  0  0  0
    0.5542   -2.5750    0.0000 C   0  0  0  0  0  0  0  0  0  0  0  0
    6.2542   -1.7250    0.0000 C   0  0  0  0  0  0  0  0  0  0  0  0
    6.9667   -1.3125    0.0000 C   0  0  0  0  0  0  0  0  0  0  0  0
    1.2667   -1.3292    0.0000 O   0  0  0  0  0  0  0  0  0  0  0  0
   -0.8833   -3.4000    0.0000 C   0  0  0  0  0  0  0  0  0  0  0  0
   -2.3083   -3.3917    0.0000 C   0  0  0  0  0  0  0  0  0  0  0  0
    4.8292   -1.7292    0.0000 C   0  0  0  0  0  0  0  0  0  0  0  0
    6.1250   -0.7292    0.0000 C   0  0  0  0  0  0  0  0  0  0  0  0
    4.9542   -0.7292    0.0000 C   0  0  0  0  0  0  0  0  0  0  0  0
    3.4042   -1.7375    0.0000 O   0  0  0  0  0  0  0  0  0  0  0  0
   -0.1708   -0.5042    0.0000 C   0  0  0  0  0  0  0  0  0  0  0  0
   -3.2375   -3.7792    0.0000 C   0  0  0  0  0  0  0  0  0  0  0  0
   -3.7375   -3.3917    0.0000 C   0  0  0  0  0  0  0  0  0  0  0  0
   -3.7333   -2.5750    0.0000 C   0  0  0  0  0  0  0  0  0  0  0  0
    4.1167   -1.3250    0.0000 C   0  0  0  0  0  0  0  0  0  0  0  0
    1.9792   -1.7417    0.0000 C   0  0  0  0  0  0  0  0  0  0  0  0
    2.6917   -1.3292    0.0000 C   0  0  0  0  0  0  0  0  0  0  0  0
    6.9667   -0.5000    0.0000 C   0  0  0  0  0  0  0  0  0  0  0  0
    7.6750   -1.7250    0.0000 C   0  0  0  0  0  0  0  0  0  0  0  0
    8.3792   -1.3167    0.0000 C   0  0  0  0  0  0  0  0  0  0  0  0
    7.6667   -0.0917    0.0000 C   0  0  0  0  0  0  0  0  0  0  0  0
    8.3792   -0.5000    0.0000 C   0  0  0  0  0  0  0  0  0  0  0  0
  2  1  1  0
  3  2  2  0
  4  3  1  0
  5 17  1  0
  6  1  1  0
  7 11  1  0
  8  2  1  0
 10  6  1  0
 11  8  2  0
 12  5  1  0
 13 12  1  0
 14  7  1  0
 15  1  1  0
 16  1  1  0
 17 25  1  0
 18  5  1  0
 19  5  1  0
 20 27  1  0
 21  4  1  0
 22 10  1  0
 23 10  1  0
 24 10  1  0
 25 20  1  0
 26 14  1  0
 27 26  1  0
 28 13  2  0
 29 13  1  0
 30 29  2  0
 31 28  1  0
 32 31  2  0
  4  7  2  0
 30 32  1  0
M  CHG  2   5   1   9  -1
M  END
>  <ID>  (727) 


>  <MOLENAME>  (727) 
METHYLBENZETHONIUM CHLORIDE

>  <therap>  (727) 
antiinfective

>  <ref>  (727) 
Am. J. Trop. Med. Hyg. (1986), 35(6), 1110-16; J. Insect Pathol. (1960), 2, 124-33; J. Am. Pharm. Assoc., Sci. Ed. (1948), 37, 272-5

>  <cas#>  (727) 
1320-44-1, 25155-18-4 [anhydrous]

>  <source>  (727) 
synthetic

>  <status>  (727) 
USP, INN, BAN

>  <tradename>  (727) 
DELAVAN

>  <SMILES>  (727) 
Cc1c(OCCOCC[N+](C)(C)Cc2ccccc2)ccc(C(C)(C)CC(C)(C)C)c1

>  <standardized_failed>  (727) 
False

$$$$

     RDKit          2D

 16 16  0  0  0  0  0  0  0  0999 V2000
    5.2917   -2.6417    0.0000 C   0  0  0  0  0  0  0  0  0  0  0  0
    4.5792   -3.0542    0.0000 C   0  0  0  0  0  0  0  0  0  0  0  0
    3.8667   -2.6417    0.0000 C   0  0  0  0  0  0  0  0  0  0  0  0
    3.1542   -3.0625    0.0000 C   0  0  0  0  0  0  0  0  0  0  0  0
    6.0125   -3.0500    0.0000 N   0  0  0  0  0  0  0  0  0  0  0  0
    5.2917   -1.8167    0.0000 O   0  0  0  0  0  0  0  0  0  0  0  0
    3.1542   -3.8875    0.0000 C   0  0  0  0  0  0  0  0  0  0  0  0
    4.5792   -3.8875    0.0000 C   0  0  0  0  0  0  0  0  0  0  0  0
    3.8667   -4.3000    0.0000 C   0  0  0  0  0  0  0  0  0  0  0  0
    2.4417   -2.6500    0.0000 O   0  0  0  0  0  0  0  0  0  0  0  0
    2.4375   -4.3000    0.0000 O   0  0  0  0  0  0  0  0  0  0  0  0
    6.0125   -3.8750    0.0000 C   0  0  0  0  0  0  0  0  0  0  0  0
    6.7250   -2.6375    0.0000 C   0  0  0  0  0  0  0  0  0  0  0  0
    2.4417   -1.8250    0.0000 C   0  0  0  0  0  0  0  0  0  0  0  0
    7.4417   -3.0417    0.0000 C   0  0  0  0  0  0  0  0  0  0  0  0
    6.7292   -4.2875    0.0000 C   0  0  0  0  0  0  0  0  0  0  0  0
  2  1  1  0
  3  2  2  0
  4  3  1  0
  5  1  1  0
  6  1  2  0
  7  9  1  0
  8  2  1  0
  9  8  2  0
 10  4  1  0
 11  7  1  0
 12  5  1  0
 13  5  1  0
 14 10  1  0
 15 13  1  0
 16 12  1  0
  7  4  2  0
M  END
>  <ID>  (728) 


>  <MOLENAME>  (728) 
ETHAMIVAN

>  <therap>  (728) 
CNS & respiratory stimulant

>  <ref>  (728) 
Compt Rendu 243:609 (1956)

>  <cas#>  (728) 
304-84-7

>  <source>  (728) 
synthetic; NCS-406087

>  <status>  (728) 
USAN, USP-XX, INN, BAN

>  <tradename>  (728) 
VANDID

>  <SMILES>  (728) 
CCN(CC)C(=O)c1cc(OC)c(O)cc1

>  <standardized_failed>  (728) 
False

$$$$

     RDKit          2D

 28 31  0  0  0  0  0  0  0  0999 V2000
    5.0792    1.1958    0.0000 S   0  0  0  0  0  0  0  0  0  0  0  0
    1.4917   -0.8417    0.0000 C   0  0  0  0  0  0  0  0  0  0  0  0
    1.4917   -2.4917    0.0000 N   0  0  0  0  0  0  0  0  0  0  0  0
    1.4917   -0.0167    0.0000 C   0  0  0  0  0  0  0  0  0  0  0  0
    0.7792   -1.2542    0.0000 C   0  0  0  0  0  0  0  0  0  0  0  0
    2.2042   -1.2542    0.0000 C   0  0  0  0  0  0  0  0  0  0  0  0
    0.7792   -2.0792    0.0000 C   0  0  0  0  0  0  0  0  0  0  0  0
    2.2042   -2.0917    0.0000 C   0  0  0  0  0  0  0  0  0  0  0  0
    4.3667    1.6208    0.0000 N   0  0  0  0  0  0  0  0  0  0  0  0
    2.2167    0.3958    0.0000 C   0  0  0  0  0  0  0  0  0  0  0  0
    2.2167    1.2208    0.0000 C   0  0  0  0  0  0  0  0  0  0  0  0
    2.9292    1.6208    0.0000 C   0  0  0  0  0  0  0  0  0  0  0  0
    4.4917    0.6208    0.0000 O   0  0  0  0  0  0  0  0  0  0  0  0
    5.7917    0.7833    0.0000 O   0  0  0  0  0  0  0  0  0  0  0  0
    3.6417    1.2083    0.0000 C   0  0  0  0  0  0  0  0  0  0  0  0
    2.9292   -0.0167    0.0000 C   0  0  0  0  0  0  0  0  0  0  0  0
    5.7917    1.6083    0.0000 C   0  0  0  0  0  0  0  0  0  0  0  0
    3.6417    0.3833    0.0000 C   0  0  0  0  0  0  0  0  0  0  0  0
    1.5042    1.6333    0.0000 O   0  0  0  0  0  0  0  0  0  0  0  0
    2.9167   -0.8417    0.0000 C   0  0  0  0  0  0  0  0  0  0  0  0
    0.0667   -0.8417    0.0000 C   0  0  0  0  0  0  0  0  0  0  0  0
    0.0667   -2.4917    0.0000 C   0  0  0  0  0  0  0  0  0  0  0  0
    2.9167   -2.5042    0.0000 C   0  0  0  0  0  0  0  0  0  0  0  0
    1.5042    2.4583    0.0000 C   0  0  0  0  0  0  0  0  0  0  0  0
   -0.6458   -1.2542    0.0000 C   0  0  0  0  0  0  0  0  0  0  0  0
    3.6417   -1.2667    0.0000 C   0  0  0  0  0  0  0  0  0  0  0  0
    3.6292   -2.0917    0.0000 C   0  0  0  0  0  0  0  0  0  0  0  0
   -0.6458   -2.0792    0.0000 C   0  0  0  0  0  0  0  0  0  0  0  0
  2  4  1  0
  3  8  2  0
  4 10  1  0
  5  2  1  0
  6  2  2  0
  7  5  2  0
  8  6  1  0
  9  1  1  0
 10 16  2  0
 11 12  2  0
 12 15  1  0
 13  1  2  0
 14  1  2  0
 15  9  1  0
 16 18  1  0
 17  1  1  0
 18 15  2  0
 19 11  1  0
 20  6  1  0
 21  5  1  0
 22  7  1  0
 23  8  1  0
 24 19  1  0
 25 21  2  0
 26 20  2  0
 27 26  1  0
 28 25  1  0
 11 10  1  0
  3  7  1  0
 27 23  2  0
 28 22  2  0
M  END
>  <ID>  (729) 


>  <MOLENAME>  (729) 
AMSACRINE

>  <therap>  (729) 
antineoplastic, immune suppressive

>  <ref>  (729) 
Pharmacother 5: 78 (1985)

>  <cas#>  (729) 
51264-14-3

>  <source>  (729) 
synthetic

>  <status>  (729) 
USAN, INN, BAN

>  <tradename>  (729) 
AMSIDYL

>  <SMILES>  (729) 
COc1cc(NS(C)(=O)=O)ccc1Cc1c2ccccc2nc2c1cccc2

>  <standardized_failed>  (729) 
False

$$$$

     RDKit          2D

 19 18  0  0  0  0  0  0  0  0999 V2000
    5.0292   -4.0042    0.0000 C   0  0  0  0  0  0  0  0  0  0  0  0
    6.4542   -1.5292    0.0000 C   0  0  0  0  0  0  0  0  0  0  0  0
    5.7417   -4.4250    0.0000 C   0  0  0  0  0  0  0  0  0  0  0  0
    4.3167   -4.4250    0.0000 C   0  0  0  0  0  0  0  0  0  0  0  0
    5.7417   -1.9417    0.0000 N   0  0  0  0  0  0  0  0  0  0  0  0
    5.0292   -3.1792    0.0000 C   0  0  0  0  0  0  0  0  0  0  0  0
    6.4542   -0.7042    0.0000 O   0  0  0  0  0  0  0  0  0  0  0  0
    5.7417   -2.7667    0.0000 C   0  0  0  0  0  0  0  0  0  0  0  0
    5.7417   -5.2500    0.0000 C   0  0  0  0  0  0  0  0  0  0  0  0
    4.3167   -5.2500    0.0000 C   0  0  0  0  0  0  0  0  0  0  0  0
    5.0292   -5.6542    0.0000 C   0  0  0  0  0  0  0  0  0  0  0  0
    8.9167   -3.1542    0.0000 Cl  0  0  0  0  0  0  0  0  0  0  0  0
    7.8875   -1.5292    0.0000 N   0  0  0  0  0  0  0  0  0  0  0  0
    6.4542   -4.0042    0.0000 O   0  0  0  0  0  0  0  0  0  0  0  0
    4.3125   -2.7667    0.0000 O   0  0  0  0  0  0  0  0  0  0  0  0
    7.1750   -1.9417    0.0000 C   0  0  0  0  0  0  0  0  0  0  0  0
    3.6042   -5.6625    0.0000 O   0  0  0  0  0  0  0  0  0  0  0  0
    7.1667   -4.4250    0.0000 C   0  0  0  0  0  0  0  0  0  0  0  0
    3.6000   -6.4875    0.0000 C   0  0  0  0  0  0  0  0  0  0  0  0
  2  5  1  0
  3  1  2  0
  4  1  1  0
  5  8  1  0
  6  1  1  0
  7  2  2  0
  8  6  1  0
  9  3  1  0
 10  4  2  0
 11 10  1  0
 13 16  1  0
 14  3  1  0
 15  6  1  0
 16  2  1  0
 17 10  1  0
 18 14  1  0
 19 17  1  0
  9 11  2  0
M  END
>  <ID>  (730) 


>  <MOLENAME>  (730) 
MIDODRINE HYDROCHLORIDE

>  <therap>  (730) 
antihypertensive, vasoconstrictor

>  <ref>  (730) 
Expert Opin. Pharmacother. (2000), 1(4), 835-840; Eur. J. Clin. Pharmacol. (1979), 16(6), 423-4; Arzneim. Forsch. (1976), 26(12), 2145-54

>  <cas#>  (730) 
3092-17-9, 42794-76-3 [midodrine]

>  <source>  (730) 
synthetic; A-4020, St-1085

>  <status>  (730) 
USAN, INN, BAN, JAN

>  <tradename>  (730) 
ORVATEN

>  <SMILES>  (730) 
COc1cc(C(O)CNC(=O)CN)c(OC)cc1

>  <standardized_failed>  (730) 
False

$$$$

     RDKit          2D

 22 23  0  0  0  0  0  0  0  0999 V2000
    5.3625   -1.5292    0.0000 C   0  0  0  0  0  0  0  0  0  0  0  0
    6.0750   -1.9417    0.0000 C   0  0  0  0  0  0  0  0  0  0  0  0
    5.3625   -0.7042    0.0000 C   0  0  0  0  0  0  0  0  0  0  0  0
    6.0750   -0.2917    0.0000 C   0  0  0  0  0  0  0  0  0  0  0  0
    6.7917   -1.5292    0.0000 C   0  0  0  0  0  0  0  0  0  0  0  0
    6.7917   -0.7042    0.0000 C   0  0  0  0  0  0  0  0  0  0  0  0
    4.6500   -1.9417    0.0000 C   0  0  0  0  0  0  0  0  0  0  0  0
    4.6500   -2.7667    0.0000 O   0  0  0  0  0  0  0  0  0  0  0  0
    6.0792   -5.2542    0.0000 N   0  0  0  0  0  0  0  0  0  0  0  0
    6.7917   -5.6625    0.0000 C   0  0  0  0  0  0  0  0  0  0  0  0
    5.3625   -4.0042    0.0000 C   0  0  0  0  0  0  0  0  0  0  0  0
    5.3542   -3.1792    0.0000 C   0  0  0  0  0  0  0  0  0  0  0  0
    6.0792   -4.4167    0.0000 C   0  0  0  0  0  0  0  0  0  0  0  0
    7.5125   -1.9500    0.0000 O   0  0  0  0  0  0  0  0  0  0  0  0
    7.5125   -0.2917    0.0000 O   0  0  0  0  0  0  0  0  0  0  0  0
    4.6500   -4.4167    0.0000 O   0  0  0  0  0  0  0  0  0  0  0  0
    4.6500   -0.2917    0.0000 C   0  0  0  0  0  0  0  0  0  0  0  0
    3.9292   -0.7042    0.0000 C   0  0  0  0  0  0  0  0  0  0  0  0
    3.9292   -1.5292    0.0000 C   0  0  0  0  0  0  0  0  0  0  0  0
    6.7917   -6.4917    0.0000 C   0  0  0  0  0  0  0  0  0  0  0  0
    7.5042   -5.2417    0.0000 C   0  0  0  0  0  0  0  0  0  0  0  0
    7.5042   -6.0750    0.0000 C   0  0  0  0  0  0  0  0  0  0  0  0
  2  1  1  0
  3  1  2  0
  4  3  1  0
  5  2  1  0
  6  4  1  0
  7  1  1  0
  8  7  1  0
  9 13  1  0
 10  9  1  0
 11 12  1  0
 12  8  1  0
 13 11  1  0
  5 14  1  1
  6 15  1  1
 16 11  1  0
 17  3  1  0
 18 19  1  0
 19  7  2  0
 20 10  1  0
 21 10  1  0
 22 10  1  0
 18 17  2  0
  6  5  1  0
M  END
>  <ID>  (731) 


>  <MOLENAME>  (731) 
NADOLOL

>  <therap>  (731) 
betaadrenergic blocker

>  <ref>  (731) 
Drugs (1980), 20(1), 1-23; J. Pharmacol. Exp. Ther. (1977), 202(3), 702-10; Br. J. Clin. Pract. (1980), 34(7), 211-21

>  <cas#>  (731) 
42200-33-9

>  <source>  (731) 
synthetic; SQ-11725

>  <status>  (731) 
USP, INN, BAN, JAN

>  <tradename>  (731) 
COGARD

>  <SMILES>  (731) 
CC(C)(C)NCC(O)COc1cccc2c1C[C@H](O)[C@H](O)C2

>  <standardized_failed>  (731) 
False

$$$$

     RDKit          2D

 26 30  0  0  0  0  0  0  0  0999 V2000
    7.1583   -1.8333    0.0000 C   0  0  0  0  0  0  0  0  0  0  0  0
    7.9083   -1.2708    0.0000 C   0  0  0  0  0  0  0  0  0  0  0  0
    5.3708   -1.7958    0.0000 C   0  0  0  0  0  0  0  0  0  0  0  0
    7.1833   -2.6208    0.0000 C   0  0  0  0  0  0  0  0  0  0  0  0
    5.3708   -2.6292    0.0000 C   0  0  0  0  0  0  0  0  0  0  0  0
    6.1583   -3.0500    0.0000 O   0  0  0  0  0  0  0  0  0  0  0  0
    6.5167   -0.7167    0.0000 C   0  0  0  0  0  0  0  0  0  0  0  0
    6.3167    0.5708    0.0000 N   0  0  0  0  0  0  0  0  0  0  0  0
    4.5958   -1.3583    0.0000 C   0  0  0  0  0  0  0  0  0  0  0  0
    5.9083   -1.3625    0.0000 C   0  0  0  0  0  0  0  0  0  0  0  0
    8.6833   -1.7208    0.0000 C   0  0  0  0  0  0  0  0  0  0  0  0
    8.0958   -2.7458    0.0000 C   0  0  0  0  0  0  0  0  0  0  0  0
    5.3167    1.0708    0.0000 C   0  0  0  0  0  0  0  0  0  0  0  0
    4.6583   -3.0417    0.0000 C   0  0  0  0  0  0  0  0  0  0  0  0
    5.5667   -0.2833    0.0000 C   0  0  0  0  0  0  0  0  0  0  0  0
    3.9458   -1.7958    0.0000 C   0  0  0  0  0  0  0  0  0  0  0  0
    8.6833   -2.4333    0.0000 C   0  0  0  0  0  0  0  0  0  0  0  0
    8.4083   -0.6208    0.0000 O   0  0  0  0  0  0  0  0  0  0  0  0
    8.1833   -3.5958    0.0000 O   0  0  0  0  0  0  0  0  0  0  0  0
    3.9458   -2.6292    0.0000 C   0  0  0  0  0  0  0  0  0  0  0  0
    4.6583   -3.8667    0.0000 O   0  0  0  0  0  0  0  0  0  0  0  0
    4.5712    0.6131    0.0000 C   0  0  0  0  0  0  0  0  0  0  0  0
    3.4555    0.5471    0.0000 C   0  0  0  0  0  0  0  0  0  0  0  0
    4.0716   -0.3859    0.0000 C   0  0  0  0  0  0  0  0  0  0  0  0
    4.5833   -0.6833    0.0000 C   0  0  0  0  0  0  0  0  0  0  0  0
    8.2333    0.7208    0.0000 Cl  0  0  0  0  0  0  0  0  0  0  0  0
  4  1  1  0
  5  3  2  0
  4  6  1  6
  7  2  1  0
  8 15  1  0
  9  3  1  0
 10  1  1  0
 11  2  1  0
 12  4  1  0
 13  8  1  0
 14  5  1  0
 10 15  1  0
 16  9  2  0
 17 12  1  0
  2 18  1  1
 19 12  2  0
 20 16  1  0
 21 14  1  0
  6  5  1  0
  7  8  1  0
 17 11  1  0
 14 20  2  0
 13 22  1  0
 23 22  1  0
 24 23  1  0
 22 24  1  0
  2  1  1  0
  3  1  1  0
  9 25  1  0
  7 25  1  1
M  END
>  <ID>  (732) 


>  <MOLENAME>  (732) 
NALTREXONE HYDROCHLORIDE

>  <therap>  (732) 
morphine antagonist

>  <ref>  (732) 
Expert Opin. Invest. Drugs (2011), 20(8), 1073-1086; Int. J. Adictions (1977), 12(7), 863-7; Am. J. Drug Alcohol Abuse(1974), 1(2), 253-69

>  <cas#>  (732) 
16676-29-2, 16590-41-3  [naltrexone]

>  <source>  (732) 
synthetic; EN-1639A

>  <status>  (732) 
USP

>  <tradename>  (732) 
VIVITROL

>  <SMILES>  (732) 
O=C1CC[C@@]2(O)[C@H]3Cc4ccc(O)c5c4C2(CCN3CC2CC2)[C@H]1O5

>  <standardized_failed>  (732) 
False

$$$$

     RDKit          2D

 18 18  0  0  0  0  0  0  0  0999 V2000
    5.6792   -2.5625    0.0000 C   0  0  0  0  0  0  0  0  0  0  0  0
    5.6792   -1.7375    0.0000 C   0  0  0  0  0  0  0  0  0  0  0  0
    7.1042   -2.5542    0.0000 N   0  0  0  0  0  0  0  0  0  0  0  0
    6.4000   -2.9667    0.0000 C   0  0  0  0  0  0  0  0  0  0  0  0
    4.9667   -2.9792    0.0000 C   0  0  0  0  0  0  0  0  0  0  0  0
    4.9625   -1.3292    0.0000 O   0  0  0  0  0  0  0  0  0  0  0  0
    6.3917   -1.3167    0.0000 O   0  0  0  0  0  0  0  0  0  0  0  0
    8.7417   -1.8042    0.0000 Cl  0  0  0  0  0  0  0  0  0  0  0  0
    7.8250   -2.9667    0.0000 C   0  0  0  0  0  0  0  0  0  0  0  0
    4.9667   -3.8042    0.0000 C   0  0  0  0  0  0  0  0  0  0  0  0
    4.2542   -2.5667    0.0000 C   0  0  0  0  0  0  0  0  0  0  0  0
    6.4000   -3.7917    0.0000 C   0  0  0  0  0  0  0  0  0  0  0  0
    6.3875   -0.4917    0.0000 C   0  0  0  0  0  0  0  0  0  0  0  0
    7.8250   -3.7917    0.0000 C   0  0  0  0  0  0  0  0  0  0  0  0
    3.5417   -2.9792    0.0000 C   0  0  0  0  0  0  0  0  0  0  0  0
    4.2542   -4.2167    0.0000 C   0  0  0  0  0  0  0  0  0  0  0  0
    7.1125   -4.2042    0.0000 C   0  0  0  0  0  0  0  0  0  0  0  0
    3.5417   -3.8042    0.0000 C   0  0  0  0  0  0  0  0  0  0  0  0
  2  1  1  0
  3  4  1  0
  4  1  1  0
  5  1  1  0
  6  2  2  0
  7  2  1  0
  9  3  1  0
 10  5  2  0
 11  5  1  0
 12  4  1  0
 13  7  1  0
 14 17  1  0
 15 11  2  0
 16 10  1  0
 17 12  1  0
 18 16  2  0
 15 18  1  0
 14  9  1  0
M  END
>  <ID>  (733) 


>  <MOLENAME>  (733) 
METHYLPHENIDATE HYDROCHLORIDE

>  <therap>  (733) 
CNS stimulant

>  <ref>  (733) 
Helv Chim Acta 27:1748 (1944); J Pharmacol Exp Therap 131:115 (1961)

>  <cas#>  (733) 
298-59-9, 113-45-1(base)

>  <source>  (733) 
synthetic

>  <status>  (733) 
USP, INN, BAN, JAN

>  <tradename>  (733) 
RITALIN

>  <SMILES>  (733) 
COC(=O)C(c1ccccc1)C1CCCCN1

>  <standardized_failed>  (733) 
False

$$$$

     RDKit          2D

 21 22  0  0  0  0  0  0  0  0999 V2000
    4.0667    2.2208    0.0000 N   0  0  0  0  0  0  0  0  0  0  0  0
    2.5042   -2.2250    0.0000 C   0  0  0  0  0  0  0  0  0  0  0  0
    2.5042   -1.4000    0.0000 C   0  0  0  0  0  0  0  0  0  0  0  0
    3.2167   -0.9875    0.0000 N   0  0  0  0  0  0  0  0  0  0  0  0
    3.8542    1.4208    0.0000 C   0  0  0  0  0  0  0  0  0  0  0  0
    3.0542    1.2083    0.0000 C   0  0  0  0  0  0  0  0  0  0  0  0
    3.4292   -0.1875    0.0000 C   0  0  0  0  0  0  0  0  0  0  0  0
    2.8417    0.3958    0.0000 C   0  0  0  0  0  0  0  0  0  0  0  0
    3.2167   -2.6417    0.0000 C   0  0  0  0  0  0  0  0  0  0  0  0
    4.8667    2.4333    0.0000 O   0  0  0  0  0  0  0  0  0  0  0  0
    1.7917   -2.6417    0.0000 C   0  0  0  0  0  0  0  0  0  0  0  0
    3.4875    2.8000    0.0000 O   0  0  0  0  0  0  0  0  0  0  0  0
    1.7917   -0.9875    0.0000 O   0  0  0  0  0  0  0  0  0  0  0  0
    4.4417    0.8333    0.0000 C   0  0  0  0  0  0  0  0  0  0  0  0
    4.2292    0.0333    0.0000 C   0  0  0  0  0  0  0  0  0  0  0  0
    3.2167   -3.4667    0.0000 C   0  0  0  0  0  0  0  0  0  0  0  0
    1.7917   -3.4667    0.0000 C   0  0  0  0  0  0  0  0  0  0  0  0
    2.0417    0.1833    0.0000 Cl  0  0  0  0  0  0  0  0  0  0  0  0
    2.5042   -3.8750    0.0000 C   0  0  0  0  0  0  0  0  0  0  0  0
    3.9292   -2.2292    0.0000 O   0  0  0  0  0  0  0  0  0  0  0  0
    1.0792   -3.8792    0.0000 Cl  0  0  0  0  0  0  0  0  0  0  0  0
  2  3  1  0
  3  4  1  0
  4  7  1  0
  5  1  1  0
  6  5  2  0
  7 15  1  0
  8  6  1  0
  9  2  2  0
 10  1  1  0
 11  2  1  0
 12  1  2  0
 13  3  2  0
 14  5  1  0
 15 14  2  0
 16  9  1  0
 17 11  2  0
 18  8  1  0
 19 17  1  0
 20  9  1  0
 21 17  1  0
  7  8  2  0
 19 16  2  0
M  CHG  2   1   1  10  -1
M  END
>  <ID>  (734) 


>  <MOLENAME>  (734) 
NICLOSAMIDE

>  <therap>  (734) 
anthelmintic, teniacide

>  <ref>  (734) 
ACS Med. Chem. Letters (2010), 1(9), 454-459; J. Parasitol. (1965), 51(4), 519-22; Ann. Trop. Med. Parasitol. (1964), 58(2), 132-46

>  <cas#>  (734) 
50-65-7

>  <source>  (734) 
synthetic; BAY-2353

>  <status>  (734) 
USAN, INN, BAN

>  <tradename>  (734) 
NICLOSIDE

>  <SMILES>  (734) 
O=C(Nc1c(Cl)cc([N+](=O)[O-])cc1)c1c(O)ccc(Cl)c1

>  <standardized_failed>  (734) 
False

$$$$

     RDKit          2D

 11 11  0  0  0  0  0  0  0  0999 V2000
    6.4667   -2.0667    0.0000 C   0  0  0  0  0  0  0  0  0  0  0  0
    7.1792   -1.6500    0.0000 C   0  0  0  0  0  0  0  0  0  0  0  0
    6.4667   -2.9000    0.0000 C   0  0  0  0  0  0  0  0  0  0  0  0
    5.7542   -1.6542    0.0000 C   0  0  0  0  0  0  0  0  0  0  0  0
    7.1792   -0.8250    0.0000 O   0  0  0  0  0  0  0  0  0  0  0  0
    5.7542   -3.3125    0.0000 C   0  0  0  0  0  0  0  0  0  0  0  0
    5.0417   -2.0667    0.0000 C   0  0  0  0  0  0  0  0  0  0  0  0
    7.9042   -2.0625    0.0000 O   0  0  0  0  0  0  0  0  0  0  0  0
    4.3292   -1.6542    0.0000 N   0  0  0  0  0  0  0  0  0  0  0  0
    5.0417   -2.9000    0.0000 C   0  0  0  0  0  0  0  0  0  0  0  0
    7.1917   -3.3125    0.0000 O   0  0  0  0  0  0  0  0  0  0  0  0
  2  1  1  0
  3  1  2  0
  4  1  1  0
  5  2  2  0
  6  3  1  0
  7  4  2  0
  8  2  1  0
  9  7  1  0
 10  7  1  0
 11  3  1  0
 10  6  2  0
M  END
>  <ID>  (735) 


>  <MOLENAME>  (735) 
MESALAMINE

>  <therap>  (735) 
antiinflammatory

>  <ref>  (735) 
Gastroenterology 83:1062 (1982); Am J Gastroenterol 81:141 (1986); Expert Opinion Pharmacother 6:69 (2005)

>  <cas#>  (735) 
89-57-6

>  <source>  (735) 
synthetic; 5-ASA

>  <status>  (735) 
USP, INN, BAN

>  <tradename>  (735) 
ASACOL

>  <SMILES>  (735) 
Nc1cc(C(=O)O)c(O)cc1

>  <standardized_failed>  (735) 
False

$$$$

     RDKit          2D

 27 29  0  0  0  0  0  0  0  0999 V2000
    2.9375   -5.2417    0.0000 C   0  0  0  0  0  0  0  0  0  0  0  0
    4.3667   -4.4042    0.0000 C   0  0  0  0  0  0  0  0  0  0  0  0
    9.1750   -4.4917    0.0000 S   0  0  0  0  0  0  0  0  0  0  0  0
    4.3667   -5.2417    0.0000 C   0  0  0  0  0  0  0  0  0  0  0  0
    3.6500   -3.9917    0.0000 C   0  0  0  0  0  0  0  0  0  0  0  0
    5.0792   -5.6542    0.0000 N   0  0  0  0  0  0  0  0  0  0  0  0
    2.9375   -4.4042    0.0000 C   0  0  0  0  0  0  0  0  0  0  0  0
    3.6500   -5.6542    0.0000 C   0  0  0  0  0  0  0  0  0  0  0  0
    2.1542   -5.4917    0.0000 C   0  0  0  0  0  0  0  0  0  0  0  0
    1.6042   -4.5542    0.0000 N   0  0  0  0  0  0  0  0  0  0  0  0
    2.2167   -3.9917    0.0000 C   0  0  0  0  0  0  0  0  0  0  0  0
    5.8000   -5.2417    0.0000 C   0  0  0  0  0  0  0  0  0  0  0  0
    5.0792   -3.9917    0.0000 C   0  0  0  0  0  0  0  0  0  0  0  0
    8.4542   -4.0792    0.0000 O   0  0  0  0  0  0  0  0  0  0  0  0
    9.8875   -4.0792    0.0000 O   0  0  0  0  0  0  0  0  0  0  0  0
    5.8000   -4.4042    0.0000 C   0  0  0  0  0  0  0  0  0  0  0  0
    9.1667   -3.6667    0.0000 O   0  0  0  0  0  0  0  0  0  0  0  0
    9.1750   -5.3167    0.0000 C   0  0  0  0  0  0  0  0  0  0  0  0
    3.6500   -3.1667    0.0000 C   0  0  0  0  0  0  0  0  0  0  0  0
    5.0792   -6.4792    0.0000 C   0  0  0  0  0  0  0  0  0  0  0  0
    6.5125   -3.1542    0.0000 S   0  0  0  0  0  0  0  0  0  0  0  0
    6.5167   -3.9917    0.0000 C   0  0  0  0  0  0  0  0  0  0  0  0
    2.9375   -2.7542    0.0000 C   0  0  0  0  0  0  0  0  0  0  0  0
    2.2167   -3.1667    0.0000 C   0  0  0  0  0  0  0  0  0  0  0  0
    7.2250   -2.7417    0.0000 C   0  0  0  0  0  0  0  0  0  0  0  0
    5.7917   -6.8917    0.0000 C   0  0  0  0  0  0  0  0  0  0  0  0
    5.7917   -7.7167    0.0000 C   0  0  0  0  0  0  0  0  0  0  0  0
  2  4  1  0
  4  8  1  6
  5  7  2  0
  6  4  1  0
  7  1  1  0
  8  1  1  0
  9  1  2  0
 10  9  1  0
 11  7  1  0
 12  6  1  0
  2 13  1  1
 14  3  2  0
 15  3  2  0
 16 13  1  0
 17  3  1  0
 18  3  1  0
 19  5  1  0
 20  6  1  0
 21 22  1  0
 16 22  1  1
 23 19  2  0
 24 11  2  0
 25 21  1  0
 26 20  1  0
 27 26  1  0
  5  2  1  0
 10 11  1  0
 24 23  1  0
 16 12  1  0
M  END
>  <ID>  (736) 


>  <MOLENAME>  (736) 
PERGOLIDE MESYLATE

>  <therap>  (736) 
dopamine receptor agonist

>  <ref>  (736) 
Adv Neurol 45:551, 555 (1986); Clin Neuropharmacol 25:1 (2002)

>  <cas#>  (736) 
66104-23-2, 66104-22-1 [pergolide]

>  <source>  (736) 
semisynthetic; LY-127809

>  <status>  (736) 
USP, INN, BAN

>  <tradename>  (736) 
PERMAX

>  <SMILES>  (736) 
CCCN1C[C@H](CSC)C[C@@H]2c3c4c(c[nH]c4ccc3)C[C@H]21

>  <standardized_failed>  (736) 
False

$$$$

     RDKit          2D

 17 16  0  0  0  0  0  0  0  0999 V2000
    5.8167   -5.1542    0.0000 C   0  0  0  0  0  0  0  0  0  0  0  0
    6.5292   -4.7417    0.0000 N   0  0  0  0  0  0  0  0  0  0  0  0
    6.5292   -3.9167    0.0000 C   0  0  0  0  0  0  0  0  0  0  0  0
    5.0917   -4.7417    0.0000 O   0  0  0  0  0  0  0  0  0  0  0  0
    5.8167   -5.9917    0.0000 C   0  0  0  0  0  0  0  0  0  0  0  0
    7.2417   -3.5042    0.0000 C   0  0  0  0  0  0  0  0  0  0  0  0
    5.1042   -6.4042    0.0000 N   0  0  0  0  0  0  0  0  0  0  0  0
    3.3625   -6.2417    0.0000 Cl  0  0  0  0  0  0  0  0  0  0  0  0
    5.8042   -3.5042    0.0000 C   0  0  0  0  0  0  0  0  0  0  0  0
    7.9542   -3.9292    0.0000 C   0  0  0  0  0  0  0  0  0  0  0  0
    7.2417   -2.6792    0.0000 C   0  0  0  0  0  0  0  0  0  0  0  0
    5.1042   -7.2292    0.0000 C   0  0  0  0  0  0  0  0  0  0  0  0
    6.5292   -6.4042    0.0000 C   0  0  0  0  0  0  0  0  0  0  0  0
    4.3917   -7.6417    0.0000 C   0  0  0  0  0  0  0  0  0  0  0  0
    5.8042   -2.6792    0.0000 C   0  0  0  0  0  0  0  0  0  0  0  0
    4.3917   -8.4667    0.0000 C   0  0  0  0  0  0  0  0  0  0  0  0
    6.5292   -2.2667    0.0000 C   0  0  0  0  0  0  0  0  0  0  0  0
  2  1  1  0
  3  2  1  0
  4  1  2  0
  5  1  1  0
  6  3  2  0
  7  5  1  0
  9  3  1  0
 10  6  1  0
 11  6  1  0
 12  7  1  0
 13  5  1  0
 14 12  1  0
 15  9  2  0
 16 14  1  0
 17 15  1  0
 11 17  2  0
M  END
>  <ID>  (737) 


>  <MOLENAME>  (737) 
PRILOCAINE HYDROCHLORIDE

>  <therap>  (737) 
anesthetic (local)

>  <ref>  (737) 
Anesthesiology 28:246 (1967); Arch Dermatol 122:924 (1986)

>  <cas#>  (737) 
1786-81-8, 721-50-6 [prilocaine]

>  <source>  (737) 
synthetic; Astra-1512, L-67

>  <status>  (737) 
USAN, INN, BAN

>  <tradename>  (737) 
CITANEST

>  <SMILES>  (737) 
CCCNC(C)C(=O)Nc1c(C)cccc1

>  <standardized_failed>  (737) 
False

$$$$

     RDKit          2D

 31 34  0  0  0  0  0  0  0  0999 V2000
    5.8292   -3.2917    0.0000 C   0  0  0  0  0  0  0  0  0  0  0  0
    6.6167   -3.0542    0.0000 C   0  0  0  0  0  0  0  0  0  0  0  0
    3.6750   -4.5167    0.0000 C   0  0  0  0  0  0  0  0  0  0  0  0
    5.1000   -4.5292    0.0000 C   0  0  0  0  0  0  0  0  0  0  0  0
    5.8167   -4.1250    0.0000 C   0  0  0  0  0  0  0  0  0  0  0  0
    4.3875   -4.1042    0.0000 C   0  0  0  0  0  0  0  0  0  0  0  0
    3.6667   -5.3417    0.0000 C   0  0  0  0  0  0  0  0  0  0  0  0
    5.1167   -2.8750    0.0000 C   0  0  0  0  0  0  0  0  0  0  0  0
    4.3917   -3.2792    0.0000 C   0  0  0  0  0  0  0  0  0  0  0  0
    2.9625   -5.7542    0.0000 C   0  0  0  0  0  0  0  0  0  0  0  0
    6.8917   -2.2750    0.0000 C   0  0  0  0  0  0  0  0  0  0  0  0
    7.0917   -3.7292    0.0000 C   0  0  0  0  0  0  0  0  0  0  0  0
    7.4417   -3.0542    0.0000 O   0  0  0  0  0  0  0  0  0  0  0  0
    6.6000   -4.3917    0.0000 C   0  0  0  0  0  0  0  0  0  0  0  0
    5.1000   -5.3500    0.0000 C   0  0  0  0  0  0  0  0  0  0  0  0
    2.9625   -4.1042    0.0000 C   0  0  0  0  0  0  0  0  0  0  0  0
    7.8542   -3.7667    0.0000 C   0  0  0  0  0  0  0  0  0  0  0  0
    4.3792   -5.7542    0.0000 C   0  0  0  0  0  0  0  0  0  0  0  0
    2.2542   -5.3417    0.0000 C   0  0  0  0  0  0  0  0  0  0  0  0
    6.3500   -1.6542    0.0000 O   0  0  0  0  0  0  0  0  0  0  0  0
    7.6417   -4.5542    0.0000 O   0  0  0  0  0  0  0  0  0  0  0  0
    1.5375   -5.7542    0.0000 O   0  0  0  0  0  0  0  0  0  0  0  0
    5.8292   -2.4667    0.0000 C   0  0  0  0  0  0  0  0  0  0  0  0
    2.2542   -4.5167    0.0000 C   0  0  0  0  0  0  0  0  0  0  0  0
    3.6792   -2.8667    0.0000 O   0  0  0  0  0  0  0  0  0  0  0  0
    3.6542   -3.6792    0.0000 C   0  0  0  0  0  0  0  0  0  0  0  0
    7.7000   -2.1167    0.0000 C   0  0  0  0  0  0  0  0  0  0  0  0
    7.9125   -1.3167    0.0000 O   0  0  0  0  0  0  0  0  0  0  0  0
    8.6750   -3.6542    0.0000 C   0  0  0  0  0  0  0  0  0  0  0  0
    9.1792   -4.3167    0.0000 C   0  0  0  0  0  0  0  0  0  0  0  0
    9.9917   -4.2042    0.0000 C   0  0  0  0  0  0  0  0  0  0  0  0
  2  1  1  0
  3  6  1  0
  4  5  1  0
  5  1  1  0
  6  9  1  0
  7  3  1  0
  8  1  1  0
  9  8  1  0
 10  7  2  0
  2 11  1  0
 12  2  1  0
  2 13  1  6
 14  5  1  0
  4 15  1  6
 16  3  1  0
 17 13  1  0
 18 15  1  0
 19 24  1  0
 20 11  2  0
 21 17  2  0
 22 19  2  0
  1 23  1  1
 24 16  1  0
  9 25  1  1
  3 26  1  1
 27 11  1  0
 28 27  1  0
 29 17  1  0
 30 29  1  0
 31 30  1  0
 12 14  1  0
  6  4  1  0
 18  7  1  0
 19 10  1  0
M  END
>  <ID>  (738) 


>  <MOLENAME>  (738) 
HYDROCORTISONE BUTYRATE

>  <therap>  (738) 
glucocorticoid, antiinflammatory

>  <ref>  (738) 
Drugs (1976), 12(4), 249-57; Dermatologica, Suppl. (1976), 152(1), 181-95; Syn. Comm. (1971), 1(2), 81-7

>  <cas#>  (738) 
13609-67-1

>  <source>  (738) 
semisynthetic

>  <status>  (738) 
USP, INN, BAN, JAN

>  <tradename>  (738) 
LOCOID

>  <SMILES>  (738) 
CCCC(=O)O[C@]1(C(=O)CO)CCC2[C@@H]3CCC4=CC(=O)CC[C@]4(C)C3[C@@H](O)C[C@@]21C

>  <standardized_failed>  (738) 
False

$$$$

     RDKit          2D

 58 60  0  0  0  0  0  0  0  0999 V2000
    5.4500   -8.9417    0.0000 C   0  0  0  0  0  0  0  0  0  0  0  0
    7.5417   -9.5292    0.0000 C   0  0  0  0  0  0  0  0  0  0  0  0
    9.0167   -9.6417    0.0000 C   0  0  0  0  0  0  0  0  0  0  0  0
    9.7167   -7.5667    0.0000 C   0  0  0  0  0  0  0  0  0  0  0  0
    8.2500   -9.9417    0.0000 C   0  0  0  0  0  0  0  0  0  0  0  0
    5.0375   -9.6542    0.0000 C   0  0  0  0  0  0  0  0  0  0  0  0
    6.8625   -8.3542    0.0000 C   0  0  0  0  0  0  0  0  0  0  0  0
    7.5417   -8.7042    0.0000 C   0  0  0  0  0  0  0  0  0  0  0  0
    8.9917   -6.2167    0.0000 C   0  0  0  0  0  0  0  0  0  0  0  0
    9.0167   -8.8167    0.0000 O   0  0  0  0  0  0  0  0  0  0  0  0
    8.9917   -7.0417    0.0000 C   0  0  0  0  0  0  0  0  0  0  0  0
    8.2792   -5.8167    0.0000 C   0  0  0  0  0  0  0  0  0  0  0  0
    6.2750   -8.9417    0.0000 O   0  0  0  0  0  0  0  0  0  0  0  0
    7.7292  -12.1000    0.0000 C   0  0  0  0  0  0  0  0  0  0  0  0
    4.2042   -9.6542    0.0000 C   0  0  0  0  0  0  0  0  0  0  0  0
    6.8417   -7.4667    0.0000 C   0  0  0  0  0  0  0  0  0  0  0  0
    7.0167  -10.8542    0.0000 C   0  0  0  0  0  0  0  0  0  0  0  0
    7.7292  -11.2667    0.0000 C   0  0  0  0  0  0  0  0  0  0  0  0
    5.0375   -8.2250    0.0000 O   0  0  0  0  0  0  0  0  0  0  0  0
    6.3000  -11.2667    0.0000 O   0  0  0  0  0  0  0  0  0  0  0  0
    9.7292   -8.3917    0.0000 C   0  0  0  0  0  0  0  0  0  0  0  0
    7.0167  -12.5125    0.0000 C   0  0  0  0  0  0  0  0  0  0  0  0
    7.0167  -10.0292    0.0000 O   0  0  0  0  0  0  0  0  0  0  0  0
    6.3000  -12.1000    0.0000 C   0  0  0  0  0  0  0  0  0  0  0  0
    7.5667   -6.2417    0.0000 C   0  0  0  0  0  0  0  0  0  0  0  0
    7.5542   -7.0667    0.0000 C   0  0  0  0  0  0  0  0  0  0  0  0
    3.8000   -8.9417    0.0000 C   0  0  0  0  0  0  0  0  0  0  0  0
    8.2667   -4.9917    0.0000 N   0  0  0  0  0  0  0  0  0  0  0  0
    3.7875  -10.3750    0.0000 N   0  0  0  0  0  0  0  0  0  0  0  0
    9.6667  -10.1417    0.0000 O   0  0  0  0  0  0  0  0  0  0  0  0
    4.2042   -8.2250    0.0000 C   0  0  0  0  0  0  0  0  0  0  0  0
   10.4292   -7.9792    0.0000 O   0  0  0  0  0  0  0  0  0  0  0  0
    5.4542  -10.3750    0.0000 O   0  0  0  0  0  0  0  0  0  0  0  0
    6.8292   -6.6417    0.0000 O   0  0  0  0  0  0  0  0  0  0  0  0
    9.7792   -6.8292    0.0000 O   0  0  0  0  0  0  0  0  0  0  0  0
    7.7292  -12.9167    0.0000 O   0  0  0  0  0  0  0  0  0  0  0  0
    7.0167  -13.3375    0.0000 O   0  0  0  0  0  0  0  0  0  0  0  0
    7.5417   -4.5917    0.0000 O   0  0  0  0  0  0  0  0  0  0  0  0
    6.8375   -5.0167    0.0000 C   0  0  0  0  0  0  0  0  0  0  0  0
   10.5167   -7.3542    0.0000 C   0  0  0  0  0  0  0  0  0  0  0  0
    8.2667  -10.7917    0.0000 C   0  0  0  0  0  0  0  0  0  0  0  0
    7.5417   -7.8792    0.0000 C   0  0  0  0  0  0  0  0  0  0  0  0
    9.7042   -5.7917    0.0000 C   0  0  0  0  0  0  0  0  0  0  0  0
    8.5542  -12.1000    0.0000 C   0  0  0  0  0  0  0  0  0  0  0  0
    6.2542   -6.8792    0.0000 C   0  0  0  0  0  0  0  0  0  0  0  0
    6.1250   -4.6042    0.0000 O   0  0  0  0  0  0  0  0  0  0  0  0
   10.4417   -8.8042    0.0000 C   0  0  0  0  0  0  0  0  0  0  0  0
    5.5792  -12.5167    0.0000 C   0  0  0  0  0  0  0  0  0  0  0  0
    6.9792   -5.6542    0.0000 C   0  0  0  0  0  0  0  0  0  0  0  0
    3.9792   -5.0167    0.0000 O   0  0  0  0  0  0  0  0  0  0  0  0
    2.9542  -10.3667    0.0000 C   0  0  0  0  0  0  0  0  0  0  0  0
    4.2000  -11.0875    0.0000 C   0  0  0  0  0  0  0  0  0  0  0  0
    3.7875   -7.5042    0.0000 C   0  0  0  0  0  0  0  0  0  0  0  0
    5.4042   -5.0167    0.0000 C   0  0  0  0  0  0  0  0  0  0  0  0
    8.3792  -13.4292    0.0000 C   0  0  0  0  0  0  0  0  0  0  0  0
    4.6917   -4.6042    0.0000 C   0  0  0  0  0  0  0  0  0  0  0  0
    3.2667   -4.6042    0.0000 C   0  0  0  0  0  0  0  0  0  0  0  0
   10.4292   -9.6292    0.0000 C   0  0  0  0  0  0  0  0  0  0  0  0
  2  8  1  0
  3  5  1  0
  4 11  1  0
  5  2  1  0
  6  1  1  0
  7 13  1  1
  8  7  1  0
  9 12  1  0
 10  3  1  0
 11  9  1  0
 12 25  1  0
  1 13  1  1
 14 18  1  0
 15  6  1  0
 16  7  1  0
 17 23  1  1
 18 17  1  0
 19  1  1  0
 20 17  1  0
 21 10  1  0
 22 24  1  0
  2 23  1  1
 24 20  1  0
 25 26  1  0
 26 16  1  0
 27 31  1  0
 28 12  2  0
 15 29  1  1
 30  3  2  0
 31 19  1  0
  4 32  1  0
  6 33  1  6
 16 34  1  0
 11 35  1  6
 14 36  1  0
 22 37  1  1
 38 28  1  0
 39 38  1  0
  4 40  1  1
  5 41  1  6
  8 42  1  1
  9 43  1  6
 14 44  1  6
 16 45  1  1
 46 39  1  0
 21 47  1  1
 24 48  1  6
 25 49  1  1
 50 56  1  0
 51 29  1  0
 52 29  1  0
 31 53  1  1
 54 46  1  0
 55 36  1  0
 56 54  1  0
 57 50  1  0
 58 47  1  0
 27 15  1  0
  4 21  1  0
 22 14  1  0
M  END
>  <ID>  (739) 


>  <MOLENAME>  (739) 
ROXITHROMYCIN

>  <therap>  (739) 
antibacterial

>  <ref>  (739) 
Antimicrob Agents Chemother 24:209 (1983); 31:1147 (1987); J Antimicrob Chemother 20 Suppl B:1 (1987)

>  <cas#>  (739) 
80214-83-1

>  <source>  (739) 
semisynthetic; RU-28965, RU-965

>  <status>  (739) 
USAN, INN, JAN

>  <tradename>  (739) 
RULIDE

>  <SMILES>  (739) 
CC[C@H]1OC(=O)[C@H](C)[C@@H](O[C@H]2C[C@@](C)(OC)[C@@H](O)[C@H](C)O2)[C@H](C)[C@@H](O[C@@H]2O[C@H](C)C[C@H](N(C)C)[C@H]2O)[C@](C)(O)C[C@@H](C)/C(=N\OCOCCOC)[C@H](C)[C@@H](O)[C@]1(C)O

>  <standardized_failed>  (739) 
False

$$$$

     RDKit          2D

 34 34  0  0  0  0  0  0  0  0999 V2000
    5.7417   -3.1250    0.0000 C   0  0  0  0  0  0  0  0  0  0  0  0
    5.7417   -3.9542    0.0000 C   0  0  0  0  0  0  0  0  0  0  0  0
    4.3125   -3.1250    0.0000 C   0  0  0  0  0  0  0  0  0  0  0  0
    4.3125   -3.9500    0.0000 C   0  0  0  0  0  0  0  0  0  0  0  0
    5.0250   -4.3625    0.0000 C   0  0  0  0  0  0  0  0  0  0  0  0
    5.0250   -2.7125    0.0000 C   0  0  0  0  0  0  0  0  0  0  0  0
    6.4542   -4.3625    0.0000 C   0  0  0  0  0  0  0  0  0  0  0  0
    6.4542   -2.7125    0.0000 C   0  0  0  0  0  0  0  0  0  0  0  0
    3.6000   -4.3625    0.0000 C   0  0  0  0  0  0  0  0  0  0  0  0
    3.6000   -2.7125    0.0000 C   0  0  0  0  0  0  0  0  0  0  0  0
    5.0250   -1.8792    0.0000 O   0  0  0  0  0  0  0  0  0  0  0  0
    5.0250   -5.1792    0.0000 O   0  0  0  0  0  0  0  0  0  0  0  0
    7.1667   -3.9500    0.0000 C   0  0  0  0  0  0  0  0  0  0  0  0
    7.1667   -3.1250    0.0000 C   0  0  0  0  0  0  0  0  0  0  0  0
    2.8792   -3.1167    0.0000 C   0  0  0  0  0  0  0  0  0  0  0  0
    2.8792   -3.9417    0.0000 C   0  0  0  0  0  0  0  0  0  0  0  0
    6.4500   -5.1792    0.0000 N   0  0  0  0  0  0  0  0  0  0  0  0
    6.4500   -1.8792    0.0000 N   0  0  0  0  0  0  0  0  0  0  0  0
    3.6000   -1.8792    0.0000 O   0  0  0  0  0  0  0  0  0  0  0  0
    3.6000   -5.1792    0.0000 O   0  0  0  0  0  0  0  0  0  0  0  0
    7.8792   -0.2292    0.0000 N   0  0  0  0  0  0  0  0  0  0  0  0
    7.8792   -6.8417    0.0000 N   0  0  0  0  0  0  0  0  0  0  0  0
    9.3875   -0.3125    0.0000 Cl  0  0  0  0  0  0  0  0  0  0  0  0
    9.4167   -5.3667    0.0000 Cl  0  0  0  0  0  0  0  0  0  0  0  0
    8.5917    1.8375    0.0000 O   0  0  0  0  0  0  0  0  0  0  0  0
    8.5917   -8.9125    0.0000 O   0  0  0  0  0  0  0  0  0  0  0  0
    7.1667   -1.4750    0.0000 C   0  0  0  0  0  0  0  0  0  0  0  0
    7.1667   -5.6000    0.0000 C   0  0  0  0  0  0  0  0  0  0  0  0
    7.1667   -0.6417    0.0000 C   0  0  0  0  0  0  0  0  0  0  0  0
    7.1667   -6.4292    0.0000 C   0  0  0  0  0  0  0  0  0  0  0  0
    7.8792   -7.6667    0.0000 C   0  0  0  0  0  0  0  0  0  0  0  0
    7.8792    0.5958    0.0000 C   0  0  0  0  0  0  0  0  0  0  0  0
    8.5917   -8.0792    0.0000 C   0  0  0  0  0  0  0  0  0  0  0  0
    8.5917    1.0083    0.0000 C   0  0  0  0  0  0  0  0  0  0  0  0
  2  1  2  0
  3  6  1  0
  4  3  2  0
  5  2  1  0
  6  1  1  0
  7  2  1  0
  8  1  1  0
  9  4  1  0
 10  3  1  0
 11  6  2  0
 12  5  2  0
 13 14  1  0
 14  8  2  0
 15 10  2  0
 16 15  1  0
 17  7  1  0
 18  8  1  0
 19 10  1  0
 20  9  1  0
 21 29  1  0
 22 30  1  0
 25 34  1  0
 26 33  1  0
 27 18  1  0
 28 17  1  0
 29 27  1  0
 30 28  1  0
 31 22  1  0
 32 21  1  0
 33 31  1  0
 34 32  1  0
  4  5  1  0
 13  7  2  0
  9 16  2  0
M  END
>  <ID>  (740) 


>  <MOLENAME>  (740) 
MITOXANTRONE HYDROCHLORIDE

>  <therap>  (740) 
antineoplastic

>  <ref>  (740) 
Cancer Res. (1979), 39(5), 1570-4; J. Med. Chem. (1978), 21(3), 291-4; Cancer Res. (1980), 40(5), 1516-8

>  <cas#>  (740) 
70476-82-3, 65271-80-9 [base]

>  <source>  (740) 
semisynthetic; CL-232315

>  <status>  (740) 
USP, INN, BAN, JAN

>  <tradename>  (740) 
NOVANTRONE

>  <SMILES>  (740) 
O=C1c2c(C(=O)c3c1c(NCCNCCO)ccc3NCCNCCO)c(O)ccc2O

>  <standardized_failed>  (740) 
False

$$$$

     RDKit          2D

 34 35  0  0  0  0  0  0  0  0999 V2000
    3.8875   -2.1917    0.0000 C   0  0  0  0  0  0  0  0  0  0  0  0
    3.8917   -5.0417    0.0000 C   0  0  0  0  0  0  0  0  0  0  0  0
    4.2917   -1.4792    0.0000 N   0  0  0  0  0  0  0  0  0  0  0  0
    4.3042   -5.7542    0.0000 N   0  0  0  0  0  0  0  0  0  0  0  0
    5.0042   -1.0667    0.0000 C   0  0  0  0  0  0  0  0  0  0  0  0
    5.0167   -6.1667    0.0000 C   0  0  0  0  0  0  0  0  0  0  0  0
    4.3000   -2.9042    0.0000 C   0  0  0  0  0  0  0  0  0  0  0  0
    4.3042   -4.3292    0.0000 C   0  0  0  0  0  0  0  0  0  0  0  0
    3.8917   -3.6167    0.0000 N   0  0  0  0  0  0  0  0  0  0  0  0
    5.7167   -1.4792    0.0000 C   0  0  0  0  0  0  0  0  0  0  0  0
    5.7292   -5.7542    0.0000 C   0  0  0  0  0  0  0  0  0  0  0  0
    3.0625   -2.1917    0.0000 O   0  0  0  0  0  0  0  0  0  0  0  0
    3.0667   -5.0417    0.0000 O   0  0  0  0  0  0  0  0  0  0  0  0
    6.4292   -1.0667    0.0000 C   0  0  0  0  0  0  0  0  0  0  0  0
    6.4417   -6.1667    0.0000 C   0  0  0  0  0  0  0  0  0  0  0  0
    4.6750   -0.3750    0.0000 C   0  0  0  0  0  0  0  0  0  0  0  0
    5.5917   -0.4792    0.0000 C   0  0  0  0  0  0  0  0  0  0  0  0
    5.4292   -6.8792    0.0000 C   0  0  0  0  0  0  0  0  0  0  0  0
    4.6042   -6.8792    0.0000 C   0  0  0  0  0  0  0  0  0  0  0  0
    3.7042   -0.9000    0.0000 C   0  0  0  0  0  0  0  0  0  0  0  0
    3.7250   -6.3417    0.0000 C   0  0  0  0  0  0  0  0  0  0  0  0
    1.7542   -4.0292    0.0000 O   0  0  0  0  0  0  0  0  0  0  0  0
    3.1792   -4.0292    0.0000 C   0  0  0  0  0  0  0  0  0  0  0  0
    2.4667   -3.6167    0.0000 C   0  0  0  0  0  0  0  0  0  0  0  0
    7.1417   -1.4792    0.0000 C   0  0  0  0  0  0  0  0  0  0  0  0
    6.4292   -0.2500    0.0000 C   0  0  0  0  0  0  0  0  0  0  0  0
    6.4417   -6.9917    0.0000 C   0  0  0  0  0  0  0  0  0  0  0  0
    7.1542   -5.7542    0.0000 C   0  0  0  0  0  0  0  0  0  0  0  0
    7.1375    0.1625    0.0000 C   0  0  0  0  0  0  0  0  0  0  0  0
    7.1500   -7.4042    0.0000 C   0  0  0  0  0  0  0  0  0  0  0  0
    7.8625   -6.1667    0.0000 C   0  0  0  0  0  0  0  0  0  0  0  0
    7.8542   -1.0667    0.0000 C   0  0  0  0  0  0  0  0  0  0  0  0
    7.8542   -0.2417    0.0000 C   0  0  0  0  0  0  0  0  0  0  0  0
    7.8667   -6.9917    0.0000 C   0  0  0  0  0  0  0  0  0  0  0  0
  2  8  1  0
  3  1  1  0
  4  2  1  0
  5  3  1  0
  6  4  1  0
  7  1  1  0
  8  9  1  0
  9  7  1  0
 10  5  1  0
 11  6  1  0
 12  1  2  0
 13  2  2  0
 14 10  1  0
 15 11  1  0
 16  5  1  0
 17  5  1  0
 18  6  1  0
 19  6  1  0
 20  3  1  0
 21  4  1  0
 22 24  1  0
 23  9  1  0
 24 23  1  0
 25 14  2  0
 26 14  1  0
 27 15  2  0
 28 15  1  0
 29 26  2  0
 30 27  1  0
 31 28  2  0
 32 25  1  0
 33 29  1  0
 34 31  1  0
 32 33  2  0
 30 34  2  0
M  END
>  <ID>  (741) 


>  <MOLENAME>  (741) 
OXETHAZAINE

>  <therap>  (741) 
anesthetic (local)

>  <ref>  (741) 
Proc. Soc. Exp. Biol. Med. (1962), 109, 664-8; J. Org. Chem. (1961), 26, 2378-83; Scand. J. Gastroenterol. (1978), 13(3), 321-3

>  <cas#>  (741) 
126-27-2

>  <source>  (741) 
synthetic; Wy-806

>  <status>  (741) 
USAN, INN, BAN, JAN

>  <tradename>  (741) 
nan

>  <SMILES>  (741) 
CN(C(=O)CN(CCO)CC(=O)N(C)C(C)(C)Cc1ccccc1)C(C)(C)Cc1ccccc1

>  <standardized_failed>  (741) 
False

$$$$

     RDKit          2D

 22 22  0  0  0  0  0  0  0  0999 V2000
    3.8375    0.1583    0.0000 C   0  0  0  0  0  0  0  0  0  0  0  0
    3.0292   -0.0042    0.0000 C   0  0  0  0  0  0  0  0  0  0  0  0
    4.2500   -0.5542    0.0000 C   0  0  0  0  0  0  0  0  0  0  0  0
    3.6917   -1.1667    0.0000 N   0  0  0  0  0  0  0  0  0  0  0  0
    2.9417   -0.8292    0.0000 N   0  0  0  0  0  0  0  0  0  0  0  0
    5.3375    1.7458    0.0000 S   0  0  0  0  0  0  0  0  0  0  0  0
    4.1750    0.9125    0.0000 N   0  0  0  0  0  0  0  0  0  0  0  0
    4.9917    0.9958    0.0000 C   0  0  0  0  0  0  0  0  0  0  0  0
    2.4167    0.5458    0.0000 O   0  0  0  0  0  0  0  0  0  0  0  0
    6.0875    1.3833    0.0000 O   0  0  0  0  0  0  0  0  0  0  0  0
    2.2292   -1.2417    0.0000 C   0  0  0  0  0  0  0  0  0  0  0  0
    5.9625    2.3208    0.0000 O   0  0  0  0  0  0  0  0  0  0  0  0
    4.9292    2.5000    0.0000 O   0  0  0  0  0  0  0  0  0  0  0  0
    3.8625   -1.9750    0.0000 C   0  0  0  0  0  0  0  0  0  0  0  0
    5.0667   -0.6417    0.0000 C   0  0  0  0  0  0  0  0  0  0  0  0
    3.6917    1.5833    0.0000 C   0  0  0  0  0  0  0  0  0  0  0  0
    6.3375    0.7583    0.0000 Na  0  0  0  0  0 15  0  0  0  0  0  0
    1.5167   -0.8250    0.0000 C   0  0  0  0  0  0  0  0  0  0  0  0
    2.2292   -2.0667    0.0000 C   0  0  0  0  0  0  0  0  0  0  0  0
    0.8042   -1.2417    0.0000 C   0  0  0  0  0  0  0  0  0  0  0  0
    1.5167   -2.4750    0.0000 C   0  0  0  0  0  0  0  0  0  0  0  0
    0.8042   -2.0667    0.0000 C   0  0  0  0  0  0  0  0  0  0  0  0
  2  1  1  0
  3  1  2  0
  4  3  1  0
  5  2  1  0
  6  8  1  0
  7  1  1  0
  8  7  1  0
  9  2  2  0
 10  6  1  0
 11  5  1  0
 12  6  2  0
 13  6  2  0
 14  4  1  0
 15  3  1  0
 16  7  1  0
 18 11  2  0
 19 11  1  0
 20 18  1  0
 21 19  2  0
 22 20  2  0
  5  4  1  0
 21 22  1  0
M  CHG  2  10  -1  17   1
M  END
>  <ID>  (742) 


>  <MOLENAME>  (742) 
DIPYRONE

>  <therap>  (742) 
analgesic, antipyretic

>  <ref>  (742) 
Agents Actions Suppl. (1986), AAS 19, 169-75; Clin. Pharmacokinet. (1995), 28(3), 216-34; Arzneim. Forsch. (1956), 6, 124-7

>  <cas#>  (742) 
5907-38-0, 68-89-3 [anhydrous]

>  <source>  (742) 
synthetic; NSC-73205

>  <status>  (742) 
USAN, INN, BAN, JAN

>  <tradename>  (742) 
NOVALDIN

>  <SMILES>  (742) 
Cc1c(N(C)CS(=O)(=O)O)c(=O)n(-c2ccccc2)n1C

>  <standardized_failed>  (742) 
False

$$$$

     RDKit          2D

 62 69  0  0  0  0  0  0  0  0999 V2000
    5.0542   -1.8375    0.0000 C   0  0  0  0  0  0  0  0  0  0  0  0
    6.4500   -5.2375    0.0000 C   0  0  0  0  0  0  0  0  0  0  0  0
    5.7292   -5.6417    0.0000 C   0  0  0  0  0  0  0  0  0  0  0  0
    5.7667   -1.4292    0.0000 C   0  0  0  0  0  0  0  0  0  0  0  0
    6.4792   -1.8417    0.0000 C   0  0  0  0  0  0  0  0  0  0  0  0
    5.0250   -5.2292    0.0000 C   0  0  0  0  0  0  0  0  0  0  0  0
    5.7625   -3.0792    0.0000 C   0  0  0  0  0  0  0  0  0  0  0  0
    5.7417   -3.9917    0.0000 C   0  0  0  0  0  0  0  0  0  0  0  0
    5.0500   -2.6667    0.0000 C   0  0  0  0  0  0  0  0  0  0  0  0
    6.4542   -4.4042    0.0000 C   0  0  0  0  0  0  0  0  0  0  0  0
    7.2042    0.2208    0.0000 C   0  0  0  0  0  0  0  0  0  0  0  0
    4.2917   -7.2917    0.0000 C   0  0  0  0  0  0  0  0  0  0  0  0
    5.0250   -4.4042    0.0000 C   0  0  0  0  0  0  0  0  0  0  0  0
    6.4792   -2.6667    0.0000 C   0  0  0  0  0  0  0  0  0  0  0  0
    7.9292    0.6333    0.0000 C   0  0  0  0  0  0  0  0  0  0  0  0
    3.5750   -7.7042    0.0000 C   0  0  0  0  0  0  0  0  0  0  0  0
    7.9292    1.4625    0.0000 C   0  0  0  0  0  0  0  0  0  0  0  0
    3.5667   -8.5375    0.0000 C   0  0  0  0  0  0  0  0  0  0  0  0
    5.0125   -7.7167    0.0000 O   0  0  0  0  0  0  0  0  0  0  0  0
    6.4917    0.6458    0.0000 O   0  0  0  0  0  0  0  0  0  0  0  0
    7.2167    1.8833    0.0000 C   0  0  0  0  0  0  0  0  0  0  0  0
    4.2792   -8.9542    0.0000 C   0  0  0  0  0  0  0  0  0  0  0  0
    7.1625   -5.6542    0.0000 C   0  0  0  0  0  0  0  0  0  0  0  0
    4.3417   -1.4167    0.0000 C   0  0  0  0  0  0  0  0  0  0  0  0
    7.1917   -1.4292    0.0000 C   0  0  0  0  0  0  0  0  0  0  0  0
    4.3042   -5.6417    0.0000 C   0  0  0  0  0  0  0  0  0  0  0  0
    6.5000    1.4708    0.0000 C   0  0  0  0  0  0  0  0  0  0  0  0
    5.0042   -8.5417    0.0000 C   0  0  0  0  0  0  0  0  0  0  0  0
    7.1667   -4.0000    0.0000 C   0  0  0  0  0  0  0  0  0  0  0  0
    4.3292   -3.0750    0.0000 C   0  0  0  0  0  0  0  0  0  0  0  0
    7.2042   -0.6042    0.0000 O   0  0  0  0  0  0  0  0  0  0  0  0
    4.3042   -6.4667    0.0000 O   0  0  0  0  0  0  0  0  0  0  0  0
    3.6167   -2.6542    0.0000 C   0  0  0  0  0  0  0  0  0  0  0  0
    7.8875   -4.4167    0.0000 C   0  0  0  0  0  0  0  0  0  0  0  0
    2.9000   -3.0667    0.0000 C   0  0  0  0  0  0  0  0  0  0  0  0
    8.6042   -4.0042    0.0000 C   0  0  0  0  0  0  0  0  0  0  0  0
    7.8792   -5.2500    0.0000 C   0  0  0  0  0  0  0  0  0  0  0  0
    3.6250   -1.8250    0.0000 C   0  0  0  0  0  0  0  0  0  0  0  0
    5.7750   -0.6042    0.0000 O   0  0  0  0  0  0  0  0  0  0  0  0
    5.7292   -6.4667    0.0000 O   0  0  0  0  0  0  0  0  0  0  0  0
    2.8917   -3.8917    0.0000 O   0  0  0  0  0  0  0  0  0  0  0  0
    8.6125   -3.1792    0.0000 O   0  0  0  0  0  0  0  0  0  0  0  0
    8.6417    0.2125    0.0000 O   0  0  0  0  0  0  0  0  0  0  0  0
    2.8542   -7.2875    0.0000 O   0  0  0  0  0  0  0  0  0  0  0  0
    8.6542    1.8750    0.0000 O   0  0  0  0  0  0  0  0  0  0  0  0
    2.8500   -8.9500    0.0000 O   0  0  0  0  0  0  0  0  0  0  0  0
    4.3500   -0.5917    0.0000 O   0  0  0  0  0  0  0  0  0  0  0  0
    7.1542   -6.4792    0.0000 O   0  0  0  0  0  0  0  0  0  0  0  0
    7.2250    2.7083    0.0000 O   0  0  0  0  0  0  0  0  0  0  0  0
    4.2792   -9.7792    0.0000 O   0  0  0  0  0  0  0  0  0  0  0  0
    9.3167   -4.4292    0.0000 O   0  0  0  0  0  0  0  0  0  0  0  0
    2.1875   -2.6417    0.0000 O   0  0  0  0  0  0  0  0  0  0  0  0
    7.1917   -3.0875    0.0000 C   0  0  0  0  0  0  0  0  0  0  0  0
    4.3042   -3.9875    0.0000 C   0  0  0  0  0  0  0  0  0  0  0  0
    5.7792    1.8958    0.0000 C   0  0  0  0  0  0  0  0  0  0  0  0
    5.7167   -8.9625    0.0000 C   0  0  0  0  0  0  0  0  0  0  0  0
    7.9042   -1.8500    0.0000 C   0  0  0  0  0  0  0  0  0  0  0  0
    3.5917   -5.2292    0.0000 C   0  0  0  0  0  0  0  0  0  0  0  0
    5.9375    2.7083    0.0000 O   0  0  0  0  0  0  0  0  0  0  0  0
    5.5667   -9.7792    0.0000 O   0  0  0  0  0  0  0  0  0  0  0  0
    3.5917   -4.4000    0.0000 C   0  0  0  0  0  0  0  0  0  0  0  0
    7.9042   -2.6750    0.0000 C   0  0  0  0  0  0  0  0  0  0  0  0
  2 10  2  0
  3  6  1  0
  4  1  1  0
  5  4  1  0
  6 13  2  0
  7  9  1  6
  8  7  1  0
  9  1  2  0
  8 10  1  1
 11 31  1  1
 12 32  1  1
 13  8  1  0
 14  7  1  0
 15 11  1  0
 16 12  1  0
 17 15  1  0
 18 16  1  0
 19 12  1  0
 20 11  1  0
 21 27  1  0
 22 28  1  0
 23  2  1  0
 24  1  1  0
 25  5  2  0
 26  6  1  0
 27 20  1  0
 28 19  1  0
 29 10  1  0
 30  9  1  0
 31 25  1  0
 32 26  1  0
 33 38  1  0
 34 29  2  0
 35 33  1  0
 36 34  1  0
 37 34  1  0
 38 24  2  0
 39  4  2  0
 40  3  2  0
 41 35  2  0
 42 36  2  0
 15 43  1  1
 16 44  1  1
 17 45  1  6
 18 46  1  6
 47 24  1  0
 48 23  1  0
 21 49  1  1
 22 50  1  1
 51 36  1  0
 52 35  1  0
 53 14  2  0
 54 13  1  0
 27 55  1  6
 28 56  1  6
 57 25  1  0
 58 61  1  0
 59 55  1  0
 60 56  1  0
 61 54  2  0
 62 53  1  0
 30 33  2  0
  5 14  1  0
 57 62  2  0
  2  3  1  0
 26 58  2  0
 37 23  2  0
 17 21  1  0
 18 22  1  0
M  END
>  <ID>  (743) 


>  <MOLENAME>  (743) 
SENNOSIDE A

>  <therap>  (743) 
cathartic

>  <ref>  (743) 
Helv Chim Acta 33: 313 (1950)

>  <cas#>  (743) 
81-27-6

>  <source>  (743) 
Cassia & Rheum spp

>  <status>  (743) 
USP, JAN

>  <tradename>  (743) 
GLYSENNID

>  <SMILES>  (743) 
O=C(O)c1cc2c(C(=O)c3c(O[C@H]4O[C@H](CO)[C@@H](O)[C@H](O)[C@H]4O)cccc3[C@@H]2[C@H]2c3c(C(=O)c4c2cccc4O[C@H]2O[C@H](CO)[C@@H](O)[C@H](O)[C@H]2O)c(O)cc(C(=O)O)c3)c(O)c1

>  <standardized_failed>  (743) 
False

$$$$

     RDKit          2D

 30 32  0  0  0  0  0  0  0  0999 V2000
    7.3417   -6.0792    0.0000 N   0  0  0  0  0  0  0  0  0  0  0  0
    7.3417   -6.9042    0.0000 C   0  0  0  0  0  0  0  0  0  0  0  0
    6.5167   -6.0792    0.0000 C   0  0  0  0  0  0  0  0  0  0  0  0
    6.5167   -6.9042    0.0000 C   0  0  0  0  0  0  0  0  0  0  0  0
    8.1250   -5.8292    0.0000 C   0  0  0  0  0  0  0  0  0  0  0  0
    8.1250   -7.1625    0.0000 S   0  0  0  0  0  0  0  0  0  0  0  0
    5.9375   -7.4875    0.0000 C   0  0  0  0  0  0  0  0  0  0  0  0
    8.6042   -6.5000    0.0000 C   0  0  0  0  0  0  0  0  0  0  0  0
    5.9792   -8.2667    0.0000 N   0  0  0  0  0  0  0  0  0  0  0  0
    5.9792   -9.0917    0.0000 C   0  0  0  0  0  0  0  0  0  0  0  0
    8.3792   -5.0417    0.0000 C   0  0  0  0  0  0  0  0  0  0  0  0
    5.2667   -9.5042    0.0000 C   0  0  0  0  0  0  0  0  0  0  0  0
    5.9375   -5.5042    0.0000 O   0  0  0  0  0  0  0  0  0  0  0  0
    6.7000   -9.5042    0.0000 C   0  0  0  0  0  0  0  0  0  0  0  0
    5.1042   -7.2167    0.0000 O   0  0  0  0  0  0  0  0  0  0  0  0
    7.8250   -4.4292    0.0000 O   0  0  0  0  0  0  0  0  0  0  0  0
    9.1792   -4.8667    0.0000 O   0  0  0  0  0  0  0  0  0  0  0  0
    5.2667  -10.3292    0.0000 C   0  0  0  0  0  0  0  0  0  0  0  0
    6.7000  -10.3292    0.0000 C   0  0  0  0  0  0  0  0  0  0  0  0
    5.9792  -10.7417    0.0000 C   0  0  0  0  0  0  0  0  0  0  0  0
    9.4167   -6.3667    0.0000 C   0  0  0  0  0  0  0  0  0  0  0  0
    9.1792   -7.0917    0.0000 C   0  0  0  0  0  0  0  0  0  0  0  0
    7.4167   -9.0917    0.0000 O   0  0  0  0  0  0  0  0  0  0  0  0
    6.0042   -4.3167    0.0000 Na  0  0  0  0  0 15  0  0  0  0  0  0
    4.5542   -9.0917    0.0000 C   0  0  0  0  0  0  0  0  0  0  0  0
    4.5542  -10.7417    0.0000 C   0  0  0  0  0  0  0  0  0  0  0  0
    7.4250   -8.2667    0.0000 C   0  0  0  0  0  0  0  0  0  0  0  0
    3.8417   -9.5042    0.0000 C   0  0  0  0  0  0  0  0  0  0  0  0
    8.1375   -7.8542    0.0000 C   0  0  0  0  0  0  0  0  0  0  0  0
    3.8417  -10.3292    0.0000 C   0  0  0  0  0  0  0  0  0  0  0  0
  2  1  1  0
  3  1  1  0
  4  3  1  0
  5  1  1  0
  2  6  1  6
  4  7  1  6
  8  5  1  0
  9  7  1  0
 10  9  1  0
 11  5  1  0
 12 10  1  0
 13  3  2  0
 14 10  2  0
 15  7  2  0
 16 11  1  0
 17 11  2  0
 18 12  2  0
 19 14  1  0
 20 19  2  0
 21  8  1  0
 22  8  1  0
 23 14  1  0
 25 12  1  0
 26 18  1  0
 27 23  1  0
 28 25  2  0
 29 27  1  0
 30 28  1  0
  8  6  1  0
  4  2  1  0
 20 18  1  0
 30 26  2  0
M  CHG  2  16  -1  24   1
M  END
>  <ID>  (744) 


>  <MOLENAME>  (744) 
NAFCILLIN SODIUM

>  <therap>  (744) 
antibacterial

>  <ref>  (744) 
Antimicrob. Agents Chemother. (1964), 305-10; Antimicrob. Agents Chemother. (1962), 1961, 611-19; J. Chem. Soc. (1963), 491-7

>  <cas#>  (744) 
7177-50-6, 985-16-0 [anhydrous], 147-52-4 [nafcillin]

>  <source>  (744) 
semisynthetic; WY-3277

>  <status>  (744) 
USP, INN, BAN

>  <tradename>  (744) 
NALLPEN

>  <SMILES>  (744) 
CCOc1c(NC(=O)[C@@H]2C(=O)N3C(C(=O)O)C(C)(C)S[C@H]23)c2c(cccc2)cc1

>  <standardized_failed>  (744) 
False

$$$$

     RDKit          2D

 13 10  0  0  0  0  0  0  0  0999 V2000
    3.6417   -3.3625    0.0000 S   0  0  0  0  0  0  0  0  0  0  0  0
    6.4917   -3.3542    0.0000 S   0  0  0  0  0  0  0  0  0  0  0  0
    2.9292   -3.7750    0.0000 O   0  0  0  0  0  0  0  0  0  0  0  0
    7.2042   -3.7625    0.0000 O   0  0  0  0  0  0  0  0  0  0  0  0
    2.9292   -2.9500    0.0000 O   0  0  0  0  0  0  0  0  0  0  0  0
    4.3542   -2.9417    0.0000 O   0  0  0  0  0  0  0  0  0  0  0  0
    5.7792   -2.9417    0.0000 O   0  0  0  0  0  0  0  0  0  0  0  0
    7.2042   -2.9375    0.0000 O   0  0  0  0  0  0  0  0  0  0  0  0
    4.3542   -3.7667    0.0000 C   0  0  0  0  0  0  0  0  0  0  0  0
    5.7792   -3.7667    0.0000 C   0  0  0  0  0  0  0  0  0  0  0  0
    5.0667   -3.3542    0.0000 C   0  0  0  0  0  0  0  0  0  0  0  0
    1.0625   -3.3667    0.0000 Na  0  0  0  0  0 15  0  0  0  0  0  0
    8.4917   -3.4000    0.0000 Na  0  0  0  0  0 15  0  0  0  0  0  0
  2 10  1  0
  3  1  1  0
  4  2  1  0
  5  1  2  0
  6  1  2  0
  7  2  2  0
  8  2  2  0
  9  1  1  0
 10 11  1  0
 11  9  1  0
M  CHG  4   3  -1   4  -1  12   1  13   1
M  END
>  <ID>  (745) 


>  <MOLENAME>  (745) 
EPRODISATE DISODIUM

>  <therap>  (745) 
amyloidosis therapy

>  <ref>  (745) 
N Engl J Med 356:2349 (2007); 357:1153 (2007); BMJ 334:1245 (2007)

>  <cas#>  (745) 
36589-58-9

>  <source>  (745) 
synthetic; NC-503

>  <status>  (745) 
USAN, INN

>  <tradename>  (745) 
nan

>  <SMILES>  (745) 
O=S(=O)(O)CCCS(=O)(=O)O

>  <standardized_failed>  (745) 
False

$$$$

     RDKit          2D

 25 28  0  0  0  0  0  0  0  0999 V2000
   -1.7292   -2.0542    0.0000 C   0  0  0  0  0  0  0  0  0  0  0  0
   -0.9792   -1.4917    0.0000 C   0  0  0  0  0  0  0  0  0  0  0  0
   -3.5167   -2.0167    0.0000 C   0  0  0  0  0  0  0  0  0  0  0  0
   -1.7042   -2.8417    0.0000 C   0  0  0  0  0  0  0  0  0  0  0  0
   -3.5167   -2.8500    0.0000 C   0  0  0  0  0  0  0  0  0  0  0  0
   -2.7292   -3.2708    0.0000 O   0  0  0  0  0  0  0  0  0  0  0  0
   -2.3708   -0.9375    0.0000 C   0  0  0  0  0  0  0  0  0  0  0  0
   -2.5708    0.3500    0.0000 N   0  0  0  0  0  0  0  0  0  0  0  0
   -4.2917   -1.5792    0.0000 C   0  0  0  0  0  0  0  0  0  0  0  0
   -2.9792   -1.5833    0.0000 C   0  0  0  0  0  0  0  0  0  0  0  0
   -0.2042   -1.9417    0.0000 C   0  0  0  0  0  0  0  0  0  0  0  0
   -0.7917   -2.9667    0.0000 C   0  0  0  0  0  0  0  0  0  0  0  0
   -3.5708    0.8500    0.0000 C   0  0  0  0  0  0  0  0  0  0  0  0
   -4.2292   -3.2625    0.0000 C   0  0  0  0  0  0  0  0  0  0  0  0
   -3.3208   -0.5042    0.0000 C   0  0  0  0  0  0  0  0  0  0  0  0
   -4.9417   -2.0167    0.0000 C   0  0  0  0  0  0  0  0  0  0  0  0
   -0.2042   -2.6542    0.0000 C   0  0  0  0  0  0  0  0  0  0  0  0
   -0.4792   -0.8417    0.0000 O   0  0  0  0  0  0  0  0  0  0  0  0
   -0.7042   -3.8167    0.0000 O   0  0  0  0  0  0  0  0  0  0  0  0
   -4.9417   -2.8500    0.0000 C   0  0  0  0  0  0  0  0  0  0  0  0
   -4.2292   -4.0875    0.0000 O   0  0  0  0  0  0  0  0  0  0  0  0
   -4.3163    0.3923    0.0000 C   0  0  0  0  0  0  0  0  0  0  0  0
   -4.3042   -0.9042    0.0000 C   0  0  0  0  0  0  0  0  0  0  0  0
   -5.0855    0.8091    0.0000 C   0  0  0  0  0  0  0  0  0  0  0  0
   -0.6542    0.5000    0.0000 Cl  0  0  0  0  0  0  0  0  0  0  0  0
  4  1  1  0
  5  3  2  0
  4  6  1  6
  7  2  1  0
  8 15  1  0
  9  3  1  0
 10  1  1  0
 11  2  1  0
 12  4  1  0
 13  8  1  0
 14  5  1  0
 10 15  1  0
 16  9  2  0
 17 12  1  0
  2 18  1  1
 19 12  2  0
 20 16  1  0
 21 14  1  0
  6  5  1  0
  7  8  1  0
 17 11  1  0
 14 20  2  0
 13 22  1  0
  2  1  1  0
  3  1  1  0
  9 23  1  0
  7 23  1  1
 22 24  2  0
M  END
>  <ID>  (746) 


>  <MOLENAME>  (746) 
NALOXONE HYDROCHLORIDE

>  <therap>  (746) 
narcotic antagonist

>  <ref>  (746) 
Brain Res 839:209 (1999); Brit J Pharmacol 127:605 (1999)

>  <cas#>  (746) 
357-08-4, 51481-60-8 [dihydrate], 465-65-6 [naloxone]

>  <source>  (746) 
synthetic; EN-15304

>  <status>  (746) 
USP, INN, BAN, JAN

>  <tradename>  (746) 
NARCAN

>  <SMILES>  (746) 
C=CCN1CCC23c4c5O[C@H]2C(=O)CC[C@@]3(O)[C@H]1Cc4ccc5O

>  <standardized_failed>  (746) 
False

$$$$

     RDKit          2D

 12 12  0  0  0  0  0  0  0  0999 V2000
    1.7792   -1.1500    0.0000 C   0  0  0  0  0  0  0  0  0  0  0  0
    1.7792   -1.9750    0.0000 C   0  0  0  0  0  0  0  0  0  0  0  0
    3.2000   -1.9750    0.0000 C   0  0  0  0  0  0  0  0  0  0  0  0
    3.2000   -1.1500    0.0000 C   0  0  0  0  0  0  0  0  0  0  0  0
    2.4875   -2.3792    0.0000 C   0  0  0  0  0  0  0  0  0  0  0  0
    2.4875   -0.7292    0.0000 C   0  0  0  0  0  0  0  0  0  0  0  0
    2.4792    0.0958    0.0000 O   0  0  0  0  0  0  0  0  0  0  0  0
    2.4875   -3.2042    0.0000 O   0  0  0  0  0  0  0  0  0  0  0  0
    3.9167   -0.7375    0.0000 O   0  0  0  0  0  0  0  0  0  0  0  0
    3.9167   -2.3875    0.0000 O   0  0  0  0  0  0  0  0  0  0  0  0
    1.0625   -0.7375    0.0000 O   0  0  0  0  0  0  0  0  0  0  0  0
    1.0625   -2.3875    0.0000 O   0  0  0  0  0  0  0  0  0  0  0  0
  2  1  2  0
  3  4  2  0
  4  6  1  0
  5  2  1  0
  6  1  1  0
  7  6  2  0
  8  5  2  0
  9  4  1  0
 10  3  1  0
 11  1  1  0
 12  2  1  0
  5  3  1  0
M  END
>  <ID>  (747) 


>  <MOLENAME>  (747) 
TETROQUINONE

>  <therap>  (747) 
keratolytic

>  <ref>  (747) 
Eye Ear Nose Throat Mon 50:101 (1971)

>  <cas#>  (747) 
319-89-1

>  <source>  (747) 
synthetic; HPEK-1; THQ

>  <status>  (747) 
USAN, INN

>  <tradename>  (747) 
nan

>  <SMILES>  (747) 
O=C1C(O)=C(O)C(=O)C(O)=C1O

>  <standardized_failed>  (747) 
False

$$$$

     RDKit          2D

  8  9  0  0  0  0  0  0  0  0999 V2000
    4.4917   -2.2458    0.0000 N   0  0  0  0  0  0  0  0  0  0  0  0
    4.7500   -3.0292    0.0000 C   0  0  0  0  0  0  0  0  0  0  0  0
    5.1625   -1.7542    0.0000 C   0  0  0  0  0  0  0  0  0  0  0  0
    5.8292   -2.2417    0.0000 N   0  0  0  0  0  0  0  0  0  0  0  0
    5.5750   -3.0292    0.0000 C   0  0  0  0  0  0  0  0  0  0  0  0
    3.9417   -2.8583    0.0000 C   0  0  0  0  0  0  0  0  0  0  0  0
    5.9792   -3.7417    0.0000 N   0  0  0  0  0  0  0  0  0  0  0  0
    5.1583   -0.9292    0.0000 O   0  0  0  0  0  0  0  0  0  0  0  0
  2  1  1  0
  3  1  1  0
  4  3  1  0
  5  2  1  0
  6  1  1  0
  7  5  2  0
  8  3  2  0
  6  2  1  0
  4  5  1  0
M  END
>  <ID>  (748) 


>  <MOLENAME>  (748) 
IMEXON

>  <therap>  (748) 
antineoplastic

>  <ref>  (748) 
Cancer Chemother. Pharmacol. (2011), 67(1), 183-192; J. Med. Chem. (2004), 47(1), 218-223; Prog. Cancer Res. Ther. (1978), 7, 389-401

>  <cas#>  (748) 
59643-91-3

>  <source>  (748) 
synthetic

>  <status>  (748) 
USAN, INN

>  <tradename>  (748) 
AMPLIMEXON

>  <SMILES>  (748) 
N=C1NC(=O)N2CC12

>  <standardized_failed>  (748) 
False

$$$$

     RDKit          2D

 18 19  0  0  0  0  0  0  0  0999 V2000
    3.7792   -0.4042    0.0000 C   0  0  0  0  0  0  0  0  0  0  0  0
    3.2917    0.2583    0.0000 N   0  0  0  0  0  0  0  0  0  0  0  0
    3.2917   -1.0667    0.0000 N   0  0  0  0  0  0  0  0  0  0  0  0
    4.6000   -0.4042    0.0000 N   0  0  0  0  0  0  0  0  0  0  0  0
    2.5042   -0.8167    0.0000 C   0  0  0  0  0  0  0  0  0  0  0  0
    2.5042    0.0083    0.0000 C   0  0  0  0  0  0  0  0  0  0  0  0
    5.0042    0.3083    0.0000 C   0  0  0  0  0  0  0  0  0  0  0  0
    1.8000   -1.2292    0.0000 C   0  0  0  0  0  0  0  0  0  0  0  0
    4.5917    1.0250    0.0000 O   0  0  0  0  0  0  0  0  0  0  0  0
    1.8000    0.4208    0.0000 C   0  0  0  0  0  0  0  0  0  0  0  0
    1.0917   -0.8167    0.0000 C   0  0  0  0  0  0  0  0  0  0  0  0
    5.8292    0.3083    0.0000 O   0  0  0  0  0  0  0  0  0  0  0  0
    1.0917    0.0083    0.0000 C   0  0  0  0  0  0  0  0  0  0  0  0
    0.3792   -1.2292    0.0000 O   0  0  0  0  0  0  0  0  0  0  0  0
   -0.3333   -0.8167    0.0000 C   0  0  0  0  0  0  0  0  0  0  0  0
    6.2375    1.0208    0.0000 C   0  0  0  0  0  0  0  0  0  0  0  0
   -1.0458   -1.2292    0.0000 C   0  0  0  0  0  0  0  0  0  0  0  0
   -1.7583   -0.8167    0.0000 C   0  0  0  0  0  0  0  0  0  0  0  0
  2  1  2  0
  3  1  1  0
  4  1  1  0
  5  3  1  0
  6  2  1  0
  7  4  1  0
  8  5  2  0
  9  7  2  0
 10  6  2  0
 11  8  1  0
 12  7  1  0
 13 10  1  0
 14 11  1  0
 15 14  1  0
 16 12  1  0
 17 15  1  0
 18 17  1  0
  5  6  1  0
 11 13  2  0
M  END
>  <ID>  (749) 


>  <MOLENAME>  (749) 
OXIBENDAZOLE

>  <therap>  (749) 
anthelmintic

>  <ref>  (749) 
Am J Vet Res 38:809 (1977); J Parasitol 66:929 (1980)

>  <cas#>  (749) 
20559-55-1

>  <source>  (749) 
synthetic; SK&F-30310

>  <status>  (749) 
USAN, INN, BAN

>  <tradename>  (749) 
ANTHELCIDE

>  <SMILES>  (749) 
CCCOc1ccc2nc(NC(=O)OC)[nH]c2c1

>  <standardized_failed>  (749) 
False

$$$$

     RDKit          2D

 16 16  0  0  0  0  0  0  0  0999 V2000
    2.7375   -2.1917    0.0000 N   0  0  0  0  0  0  0  0  0  0  0  0
    2.7375   -0.5417    0.0000 N   0  0  0  0  0  0  0  0  0  0  0  0
    2.7375    0.2833    0.0000 C   0  0  0  0  0  0  0  0  0  0  0  0
    2.7375   -3.0167    0.0000 C   0  0  0  0  0  0  0  0  0  0  0  0
    3.4500   -0.9625    0.0000 C   0  0  0  0  0  0  0  0  0  0  0  0
    2.0292   -1.7875    0.0000 C   0  0  0  0  0  0  0  0  0  0  0  0
    2.0292   -0.9625    0.0000 C   0  0  0  0  0  0  0  0  0  0  0  0
    3.4500   -1.7875    0.0000 C   0  0  0  0  0  0  0  0  0  0  0  0
    3.4542    0.6958    0.0000 C   0  0  0  0  0  0  0  0  0  0  0  0
    2.0250   -3.4292    0.0000 C   0  0  0  0  0  0  0  0  0  0  0  0
    2.0250    0.6958    0.0000 O   0  0  0  0  0  0  0  0  0  0  0  0
    3.4542   -3.4292    0.0000 O   0  0  0  0  0  0  0  0  0  0  0  0
    1.3042   -4.6667    0.0000 Br  0  0  0  0  0  0  0  0  0  0  0  0
    4.1667    1.9333    0.0000 Br  0  0  0  0  0  0  0  0  0  0  0  0
    3.4542    1.5208    0.0000 C   0  0  0  0  0  0  0  0  0  0  0  0
    2.0250   -4.2542    0.0000 C   0  0  0  0  0  0  0  0  0  0  0  0
  2  5  1  0
  3  2  1  0
  4  1  1  0
  5  8  1  0
  6  1  1  0
  7  6  1  0
  8  1  1  0
  9  3  1  0
 10  4  1  0
 11  3  2  0
 12  4  2  0
 13 16  1  0
 14 15  1  0
 15  9  1  0
 16 10  1  0
  7  2  1  0
M  END
>  <ID>  (750) 


>  <MOLENAME>  (750) 
PIPOBROMAN

>  <therap>  (750) 
antineoplastic, alkylating agent

>  <ref>  (750) 
JAMA 200:619 (1967): Haematologica 85:1011 (2000)

>  <cas#>  (750) 
54-91-1

>  <source>  (750) 
synthetic; A-8103

>  <status>  (750) 
USP-XXII, INN

>  <tradename>  (750) 
VERCYTE

>  <SMILES>  (750) 
O=C(CCBr)N1CCN(C(=O)CCBr)CC1

>  <standardized_failed>  (750) 
False

$$$$

     RDKit          2D

 44 48  0  0  0  0  0  0  0  0999 V2000
   10.9667   -5.9000    0.0000 N   0  0  0  0  0  0  0  0  0  0  0  0
   10.5667   -6.9250    0.0000 C   0  0  0  0  0  0  0  0  0  0  0  0
   11.7542   -5.6417    0.0000 C   0  0  0  0  0  0  0  0  0  0  0  0
    3.2542   -7.7542    0.0000 C   0  0  0  0  0  0  0  0  0  0  0  0
    3.4542   -8.4917    0.0000 N   0  0  0  0  0  0  0  0  0  0  0  0
   11.7542   -4.8167    0.0000 C   0  0  0  0  0  0  0  0  0  0  0  0
   10.9667   -4.5667    0.0000 N   0  0  0  0  0  0  0  0  0  0  0  0
   10.3167   -7.6292    0.0000 C   0  0  0  0  0  0  0  0  0  0  0  0
    2.5417   -7.5292    0.0000 C   0  0  0  0  0  0  0  0  0  0  0  0
   10.4875   -5.2292    0.0000 C   0  0  0  0  0  0  0  0  0  0  0  0
    9.9667   -6.4667    0.0000 O   0  0  0  0  0  0  0  0  0  0  0  0
    3.6917   -7.1417    0.0000 O   0  0  0  0  0  0  0  0  0  0  0  0
    5.2292   -5.8042    0.0000 P   0  0  0  0  0  0  0  0  0  0  0  0
    7.4625   -5.8042    0.0000 P   0  0  0  0  0  0  0  0  0  0  0  0
    6.3750   -5.8042    0.0000 O   0  0  0  0  0  0  0  0  0  0  0  0
    9.3625   -6.8875    0.0000 C   0  0  0  0  0  0  0  0  0  0  0  0
    3.2542   -6.5500    0.0000 C   0  0  0  0  0  0  0  0  0  0  0  0
    9.5667   -7.6042    0.0000 C   0  0  0  0  0  0  0  0  0  0  0  0
    2.5417   -6.7792    0.0000 C   0  0  0  0  0  0  0  0  0  0  0  0
    2.9042   -9.6750    0.0000 C   0  0  0  0  0  0  0  0  0  0  0  0
    2.8292   -8.9250    0.0000 C   0  0  0  0  0  0  0  0  0  0  0  0
   12.4667   -4.4042    0.0000 C   0  0  0  0  0  0  0  0  0  0  0  0
   12.4667   -6.0542    0.0000 N   0  0  0  0  0  0  0  0  0  0  0  0
    2.2917  -10.1125    0.0000 C   0  0  0  0  0  0  0  0  0  0  0  0
   13.1792   -4.8167    0.0000 N   0  0  0  0  0  0  0  0  0  0  0  0
    3.4917   -5.8292    0.0000 C   0  0  0  0  0  0  0  0  0  0  0  0
    8.7000   -6.5917    0.0000 C   0  0  0  0  0  0  0  0  0  0  0  0
   13.1792   -5.6417    0.0000 C   0  0  0  0  0  0  0  0  0  0  0  0
    4.3167   -5.8042    0.0000 O   0  0  0  0  0  0  0  0  0  0  0  0
    8.3417   -5.8042    0.0000 O   0  0  0  0  0  0  0  0  0  0  0  0
    5.2292   -6.6042    0.0000 O   0  0  0  0  0  0  0  0  0  0  0  0
    5.2292   -4.9167    0.0000 O   0  0  0  0  0  0  0  0  0  0  0  0
    7.4792   -4.9167    0.0000 O   0  0  0  0  0  0  0  0  0  0  0  0
    1.6167   -9.8000    0.0000 O   0  0  0  0  0  0  0  0  0  0  0  0
   10.7500   -8.2542    0.0000 O   0  0  0  0  0  0  0  0  0  0  0  0
    1.9292   -7.9750    0.0000 O   0  0  0  0  0  0  0  0  0  0  0  0
    7.4667   -6.6500    0.0000 O   0  0  0  0  0  0  0  0  0  0  0  0
    4.1292   -8.8042    0.0000 C   0  0  0  0  0  0  0  0  0  0  0  0
    2.3667  -10.8542    0.0000 N   0  0  0  0  0  0  0  0  0  0  0  0
   12.4667   -3.5792    0.0000 N   0  0  0  0  0  0  0  0  0  0  0  0
    9.1042   -8.2000    0.0000 O   0  0  0  0  0  0  0  0  0  0  0  0
    1.9375   -6.3292    0.0000 O   0  0  0  0  0  0  0  0  0  0  0  0
    3.5917   -9.9917    0.0000 C   0  0  0  0  0  0  0  0  0  0  0  0
    4.2042   -9.5542    0.0000 C   0  0  0  0  0  0  0  0  0  0  0  0
  2  1  1  1
  3  1  1  0
  4 12  1  1
  4  5  1  0
  6  3  2  0
  7 10  2  0
  8  2  1  0
  9 19  1  0
 10  1  1  0
 11  2  1  0
 12 17  1  0
 13 15  1  0
 14 30  1  0
 15 14  1  0
 16 11  1  0
 17 26  1  1
 18  8  1  0
 19 17  1  0
 20 21  2  0
 21  5  1  0
 22  6  1  0
 23  3  1  0
 24 20  1  0
 25 28  1  0
 26 29  1  0
 16 27  1  1
 28 23  2  0
 29 13  1  0
 30 27  1  0
 31 13  1  0
 32 13  2  0
 33 14  2  0
 34 24  2  0
  8 35  1  6
  9 36  1  6
 37 14  1  0
 38  5  2  0
 39 24  1  0
 40 22  1  0
 18 41  1  6
 19 42  1  6
 43 44  2  0
 44 38  1  0
  7  6  1  0
 16 18  1  0
 22 25  2  0
  9  4  1  0
 20 43  1  0
M  CHG  2   5   1  31  -1
M  END
>  <ID>  (751) 


>  <MOLENAME>  (751) 
NADIDE

>  <therap>  (751) 
alcohol and narcotic antagonist

>  <ref>  (751) 
J. Pharmacol. Exp. Ther. (2008), 324(3), 883-93; Psychopharmacologia (1969), 15(2), 144-52; JAMA, J. Am. Med. Assoc. (1967), 200(10), 881-2

>  <cas#>  (751) 
53-84-9

>  <source>  (751) 
synthetic; DPN, CO-1, NAD

>  <status>  (751) 
USAN, INN, BAN, JAN

>  <tradename>  (751) 
nan

>  <SMILES>  (751) 
NC(=O)c1c[n+]([C@@H]2O[C@H](COP(=O)([O-])OP(=O)(O)OC[C@H]3O[C@@H](n4cnc5c4ncnc5N)[C@H](O)[C@@H]3O)[C@@H](O)[C@H]2O)ccc1

>  <standardized_failed>  (751) 
False

$$$$

     RDKit          2D

 18 19  0  0  0  0  0  0  0  0999 V2000
    6.7333   -0.8917    0.0000 S   0  0  0  0  0  0  0  0  0  0  0  0
    6.0208   -1.3083    0.0000 C   0  0  0  0  0  0  0  0  0  0  0  0
    4.5958   -1.3083    0.0000 C   0  0  0  0  0  0  0  0  0  0  0  0
    3.8833   -0.8958    0.0000 C   0  0  0  0  0  0  0  0  0  0  0  0
    4.5917   -2.1375    0.0000 C   0  0  0  0  0  0  0  0  0  0  0  0
    3.1667   -1.3042    0.0000 N   0  0  0  0  0  0  0  0  0  0  0  0
    5.3042   -0.8958    0.0000 C   0  0  0  0  0  0  0  0  0  0  0  0
    3.8750   -2.5500    0.0000 N   0  0  0  0  0  0  0  0  0  0  0  0
    6.0208   -2.1375    0.0000 C   0  0  0  0  0  0  0  0  0  0  0  0
    5.3042   -2.5500    0.0000 C   0  0  0  0  0  0  0  0  0  0  0  0
    3.1625   -2.1292    0.0000 C   0  0  0  0  0  0  0  0  0  0  0  0
    6.1417   -0.3042    0.0000 O   0  0  0  0  0  0  0  0  0  0  0  0
    7.3167   -0.3042    0.0000 O   0  0  0  0  0  0  0  0  0  0  0  0
    3.8917   -0.0708    0.0000 O   0  0  0  0  0  0  0  0  0  0  0  0
    7.4500   -1.3000    0.0000 N   0  0  0  0  0  0  0  0  0  0  0  0
    6.7375   -2.5500    0.0000 Cl  0  0  0  0  0  0  0  0  0  0  0  0
    2.4458   -2.5375    0.0000 C   0  0  0  0  0  0  0  0  0  0  0  0
    1.7333   -2.1208    0.0000 C   0  0  0  0  0  0  0  0  0  0  0  0
  2  1  1  0
  3  7  1  0
  4  3  1  0
  5  3  2  0
  6  4  1  0
  7  2  2  0
  8  5  1  0
  9  2  1  0
 10  9  2  0
 11  8  1  0
 12  1  2  0
 13  1  2  0
 14  4  2  0
 15  1  1  0
 16  9  1  0
 17 11  1  0
 18 17  1  0
 10  5  1  0
 11  6  1  0
M  END
>  <ID>  (752) 


>  <MOLENAME>  (752) 
QUINETHAZONE

>  <therap>  (752) 
diuretic, antihypertensive

>  <ref>  (752) 
J Clin Pharmacol 3:167 (1963); Br Med J 2:288 (1964); J Occupational Med 8:658 (1966)

>  <cas#>  (752) 
73-49-2

>  <source>  (752) 
synthetic; CL-36010

>  <status>  (752) 
USP-XXII, INN, BAN, JAN

>  <tradename>  (752) 
HYDROMOX

>  <SMILES>  (752) 
CCC1NC(=O)c2c(cc(Cl)c(S(N)(=O)=O)c2)N1

>  <standardized_failed>  (752) 
False

$$$$

     RDKit          2D

 24 25  0  0  0  0  0  0  0  0999 V2000
    2.6917   -0.4875    0.0000 N   0  0  0  0  0  0  0  0  0  0  0  0
    3.4042   -0.9042    0.0000 C   0  0  0  0  0  0  0  0  0  0  0  0
    4.1250   -0.5000    0.0000 N   0  0  0  0  0  0  0  0  0  0  0  0
    1.9792   -0.9000    0.0000 C   0  0  0  0  0  0  0  0  0  0  0  0
    6.3667   -2.2792    0.0000 C   0  0  0  0  0  0  0  0  0  0  0  0
    5.1250   -3.0042    0.0000 C   0  0  0  0  0  0  0  0  0  0  0  0
    5.1250   -2.2792    0.0000 C   0  0  0  0  0  0  0  0  0  0  0  0
    5.7500   -1.9167    0.0000 C   0  0  0  0  0  0  0  0  0  0  0  0
    3.4042   -1.7292    0.0000 C   0  0  0  0  0  0  0  0  0  0  0  0
    5.5542    0.3125    0.0000 N   0  0  0  0  0  0  0  0  0  0  0  0
    4.4917   -3.3625    0.0000 O   0  0  0  0  0  0  0  0  0  0  0  0
    6.3667   -3.0042    0.0000 O   0  0  0  0  0  0  0  0  0  0  0  0
    1.9750   -1.7250    0.0000 C   0  0  0  0  0  0  0  0  0  0  0  0
    2.6875   -2.1375    0.0000 C   0  0  0  0  0  0  0  0  0  0  0  0
    5.7500   -3.3625    0.0000 O   0  0  0  0  0  0  0  0  0  0  0  0
    7.0000   -1.9167    0.0000 O   0  0  0  0  0  0  0  0  0  0  0  0
    4.8292   -0.9167    0.0000 C   0  0  0  0  0  0  0  0  0  0  0  0
    4.1250    0.3250    0.0000 C   0  0  0  0  0  0  0  0  0  0  0  0
    5.5500   -0.5125    0.0000 C   0  0  0  0  0  0  0  0  0  0  0  0
    4.8417    0.7333    0.0000 C   0  0  0  0  0  0  0  0  0  0  0  0
    1.2667   -0.4792    0.0000 C   0  0  0  0  0  0  0  0  0  0  0  0
    1.2667   -2.1292    0.0000 C   0  0  0  0  0  0  0  0  0  0  0  0
    0.5542   -0.9000    0.0000 C   0  0  0  0  0  0  0  0  0  0  0  0
    0.5542   -1.7250    0.0000 C   0  0  0  0  0  0  0  0  0  0  0  0
  2  1  2  0
  3  2  1  0
  4  1  1  0
  6  7  1  0
  7  8  2  0
  8  5  1  0
  9  2  1  0
 10 20  1  0
 11  6  2  0
 12  5  2  0
 13  4  2  0
 14 13  1  0
 15  6  1  0
 16  5  1  0
 17  3  1  0
 18  3  1  0
 19 17  1  0
 20 18  1  0
 21  4  1  0
 22 13  1  0
 23 21  2  0
 24 22  2  0
  9 14  2  0
 23 24  1  0
 19 10  1  0
M  END
>  <ID>  (753) 


>  <MOLENAME>  (753) 
QUIPAZINE MALEATE

>  <therap>  (753) 
antidepressant, oxytocic

>  <ref>  (753) 
Endocrine Res 5:161 (1978); Pharmacol Biochem Behavior,14:831 (1981); Behavioral Neurosci 111:825 (1997); 119:821 (2005)

>  <cas#>  (753) 
5786-68-5, 4774-24-7 [quipazine]

>  <source>  (753) 
synthetic; CGS-12066A, MA-1291

>  <status>  (753) 
USAN, INN

>  <tradename>  (753) 
nan

>  <SMILES>  (753) 
c1cc2c(cc1)nc(N1CCNCC1)cc2

>  <standardized_failed>  (753) 
False

$$$$

     RDKit          2D

 25 26  0  0  0  0  0  0  0  0999 V2000
    2.9250   -3.0167    0.0000 S   0  0  0  0  0  0  0  0  0  0  0  0
    3.6417   -2.6042    0.0000 C   0  0  0  0  0  0  0  0  0  0  0  0
    4.3542   -3.0167    0.0000 C   0  0  0  0  0  0  0  0  0  0  0  0
    3.6417   -1.7792    0.0000 C   0  0  0  0  0  0  0  0  0  0  0  0
    4.3542   -1.3667    0.0000 C   0  0  0  0  0  0  0  0  0  0  0  0
    5.0667   -2.6042    0.0000 C   0  0  0  0  0  0  0  0  0  0  0  0
    4.3500   -0.5417    0.0000 C   0  0  0  0  0  0  0  0  0  0  0  0
    5.0667   -1.7792    0.0000 C   0  0  0  0  0  0  0  0  0  0  0  0
    4.3542   -3.8417    0.0000 O   0  0  0  0  0  0  0  0  0  0  0  0
    3.5042   -3.6042    0.0000 O   0  0  0  0  0  0  0  0  0  0  0  0
    2.3375   -3.6042    0.0000 O   0  0  0  0  0  0  0  0  0  0  0  0
    2.2125   -2.6042    0.0000 N   0  0  0  0  0  0  0  0  0  0  0  0
    3.6375   -0.1292    0.0000 O   0  0  0  0  0  0  0  0  0  0  0  0
    5.7875   -3.0167    0.0000 N   0  0  0  0  0  0  0  0  0  0  0  0
    5.0667   -0.1292    0.0000 O   0  0  0  0  0  0  0  0  0  0  0  0
    5.0667   -4.2542    0.0000 C   0  0  0  0  0  0  0  0  0  0  0  0
    6.5000   -2.6042    0.0000 C   0  0  0  0  0  0  0  0  0  0  0  0
    5.7875   -3.8417    0.0000 C   0  0  0  0  0  0  0  0  0  0  0  0
    5.0625   -5.0750    0.0000 C   0  0  0  0  0  0  0  0  0  0  0  0
    7.2167   -3.0167    0.0000 C   0  0  0  0  0  0  0  0  0  0  0  0
    7.9292   -2.6042    0.0000 C   0  0  0  0  0  0  0  0  0  0  0  0
    8.6417   -3.0167    0.0000 C   0  0  0  0  0  0  0  0  0  0  0  0
    5.7667   -5.4875    0.0000 C   0  0  0  0  0  0  0  0  0  0  0  0
    6.4792   -4.2542    0.0000 C   0  0  0  0  0  0  0  0  0  0  0  0
    6.4792   -5.0750    0.0000 C   0  0  0  0  0  0  0  0  0  0  0  0
  2  1  1  0
  3  2  2  0
  4  2  1  0
  5  4  2  0
  6  3  1  0
  7  5  1  0
  8  5  1  0
  9  3  1  0
 10  1  2  0
 11  1  2  0
 12  1  1  0
 13  7  2  0
 14  6  1  0
 15  7  1  0
 16  9  1  0
 17 14  1  0
 18 16  2  0
 19 16  1  0
 20 17  1  0
 21 20  1  0
 22 21  1  0
 23 19  2  0
 24 18  1  0
 25 23  1  0
  6  8  2  0
 24 25  2  0
M  END
>  <ID>  (754) 


>  <MOLENAME>  (754) 
BUMETANIDE

>  <therap>  (754) 
diuretic

>  <ref>  (754) 
Arzneim Forsch 22:66 (1972); Drugs 28:426 (1984)

>  <cas#>  (754) 
28395-03-1

>  <source>  (754) 
synthetic

>  <status>  (754) 
USP, INN, BAN, JAN

>  <tradename>  (754) 
BUMEX

>  <SMILES>  (754) 
CCCCNc1cc(C(=O)O)cc(S(N)(=O)=O)c1Oc1ccccc1

>  <standardized_failed>  (754) 
False

$$$$

     RDKit          2D

 16 16  0  0  0  0  0  0  0  0999 V2000
    3.6167   -1.0875    0.0000 C   0  0  0  0  0  0  0  0  0  0  0  0
    4.4375   -1.0875    0.0000 N   0  0  0  0  0  0  0  0  0  0  0  0
    4.8500   -0.3667    0.0000 N   0  0  0  0  0  0  0  0  0  0  0  0
    3.2042   -0.3750    0.0000 N   0  0  0  0  0  0  0  0  0  0  0  0
    3.2000   -1.8000    0.0000 O   0  0  0  0  0  0  0  0  0  0  0  0
    5.6750   -0.3667    0.0000 O   0  0  0  0  0  0  0  0  0  0  0  0
    4.8417   -1.8000    0.0000 C   0  0  0  0  0  0  0  0  0  0  0  0
    2.3792   -0.3750    0.0000 C   0  0  0  0  0  0  0  0  0  0  0  0
    1.9792    0.3458    0.0000 C   0  0  0  0  0  0  0  0  0  0  0  0
    1.9792   -1.0875    0.0000 C   0  0  0  0  0  0  0  0  0  0  0  0
    6.0792   -2.5125    0.0000 Cl  0  0  0  0  0  0  0  0  0  0  0  0
    1.1542   -1.0875    0.0000 C   0  0  0  0  0  0  0  0  0  0  0  0
    1.1542    0.3458    0.0000 C   0  0  0  0  0  0  0  0  0  0  0  0
    0.7375   -0.3750    0.0000 C   0  0  0  0  0  0  0  0  0  0  0  0
    5.6667   -1.8000    0.0000 C   0  0  0  0  0  0  0  0  0  0  0  0
   -0.0875   -0.3750    0.0000 C   0  0  0  0  0  0  0  0  0  0  0  0
  2  1  1  0
  3  2  1  0
  4  1  1  0
  5  1  2  0
  6  3  2  0
  7  2  1  0
  8  4  1  0
  9  8  1  0
 10  8  1  0
 11 15  1  0
 12 10  1  0
 13  9  1  0
 14 12  1  0
 15  7  1  0
 16 14  1  0
 13 14  1  0
M  END
>  <ID>  (755) 


>  <MOLENAME>  (755) 
SEMUSTINE

>  <therap>  (755) 
antineoplastic

>  <ref>  (755) 
Cancer 48:2575 (1981); N Engl J Med 314:119 (1986); J Natl Cancer Inst 81:1840 (1989)

>  <cas#>  (755) 
13909-09-6

>  <source>  (755) 
synthetic; METHYL-CCNU

>  <status>  (755) 
USAN, INN

>  <tradename>  (755) 
nan

>  <SMILES>  (755) 
CC1CCC(NC(=O)N(CCCl)N=O)CC1

>  <standardized_failed>  (755) 
False

$$$$

     RDKit          2D

 11 13  0  0  0  0  0  0  0  0999 V2000
    2.5667   -1.4667    0.0000 P   0  0  0  0  0  0  0  0  0  0  0  0
    2.5667   -2.2917    0.0000 N   0  0  0  0  0  0  0  0  0  0  0  0
    1.7417   -1.4667    0.0000 N   0  0  0  0  0  0  0  0  0  0  0  0
    2.5667   -0.6417    0.0000 N   0  0  0  0  0  0  0  0  0  0  0  0
    2.5667   -3.1250    0.0000 C   0  0  0  0  0  0  0  0  0  0  0  0
    2.9792    0.0708    0.0000 C   0  0  0  0  0  0  0  0  0  0  0  0
    0.9125   -1.4667    0.0000 C   0  0  0  0  0  0  0  0  0  0  0  0
    2.1542    0.0708    0.0000 C   0  0  0  0  0  0  0  0  0  0  0  0
    1.3292   -0.7542    0.0000 C   0  0  0  0  0  0  0  0  0  0  0  0
    1.8542   -2.7042    0.0000 C   0  0  0  0  0  0  0  0  0  0  0  0
    3.3917   -1.4667    0.0000 S   0  0  0  0  0  0  0  0  0  0  0  0
  2  1  1  0
  3  1  1  0
  4  1  1  0
  5  2  1  0
  6  4  1  0
  7  3  1  0
  8  4  1  0
  9  3  1  0
 10  2  1  0
 11  1  2  0
  6  8  1  0
  7  9  1  0
  5 10  1  0
M  END
>  <ID>  (756) 


>  <MOLENAME>  (756) 
THIOTEPA

>  <therap>  (756) 
antineoplastic, alkylating agent

>  <ref>  (756) 
Cancer 6:142 (1953); Cancer Treat Rev 26:257 (2000)

>  <cas#>  (756) 
52-24-4

>  <source>  (756) 
synthetic; NSC-6396

>  <status>  (756) 
USP, INN, BAN, JAN

>  <tradename>  (756) 
THIOPLEX

>  <SMILES>  (756) 
S=P(N1CC1)(N1CC1)N1CC1

>  <standardized_failed>  (756) 
False

$$$$

     RDKit          2D

 16 16  0  0  0  0  0  0  0  0999 V2000
    5.4000   -2.7667    0.0000 C   0  0  0  0  0  0  0  0  0  0  0  0
    5.8167   -2.0500    0.0000 C   0  0  0  0  0  0  0  0  0  0  0  0
    6.1125   -3.1792    0.0000 O   0  0  0  0  0  0  0  0  0  0  0  0
    5.4042   -1.3375    0.0000 O   0  0  0  0  0  0  0  0  0  0  0  0
    6.1125   -4.0042    0.0000 C   0  0  0  0  0  0  0  0  0  0  0  0
    6.1125   -5.6625    0.0000 C   0  0  0  0  0  0  0  0  0  0  0  0
    6.6417   -2.0500    0.0000 O   0  0  0  0  0  0  0  0  0  0  0  0
    6.1125   -6.4875    0.0000 Cl  0  0  0  0  0  0  0  0  0  0  0  0
    5.3917   -4.4167    0.0000 C   0  0  0  0  0  0  0  0  0  0  0  0
    6.8250   -4.4167    0.0000 C   0  0  0  0  0  0  0  0  0  0  0  0
    6.8250   -5.2500    0.0000 C   0  0  0  0  0  0  0  0  0  0  0  0
    5.3917   -5.2500    0.0000 C   0  0  0  0  0  0  0  0  0  0  0  0
    4.9792   -3.4917    0.0000 C   0  0  0  0  0  0  0  0  0  0  0  0
    4.6792   -2.3542    0.0000 C   0  0  0  0  0  0  0  0  0  0  0  0
    7.0542   -1.3292    0.0000 C   0  0  0  0  0  0  0  0  0  0  0  0
    7.8792   -1.3292    0.0000 C   0  0  0  0  0  0  0  0  0  0  0  0
  2  1  1  0
  3  1  1  0
  4  2  2  0
  5  3  1  0
  6 11  1  0
  7  2  1  0
  8  6  1  0
  9  5  2  0
 10  5  1  0
 11 10  2  0
 12  9  1  0
 13  1  1  0
 14  1  1  0
 15  7  1  0
 16 15  1  0
 12  6  2  0
M  END
>  <ID>  (757) 


>  <MOLENAME>  (757) 
CLOFIBRATE

>  <therap>  (757) 
antihyperlipidemic

>  <ref>  (757) 
Arzneim Forsch 27:1173 (1977); Therapie 35:5 (1980)

>  <cas#>  (757) 
637-07-0

>  <source>  (757) 
synthetic; AY-61123, ICI-28257

>  <status>  (757) 
USP, INN, BAN, JAN

>  <tradename>  (757) 
ATROMID

>  <SMILES>  (757) 
CCOC(=O)C(C)(C)Oc1ccc(Cl)cc1

>  <standardized_failed>  (757) 
False

$$$$

     RDKit          2D

 11 11  0  0  0  0  0  0  0  0999 V2000
    3.0250   -0.4500    0.0000 C   0  0  0  0  0  0  0  0  0  0  0  0
    3.0250   -1.2750    0.0000 O   0  0  0  0  0  0  0  0  0  0  0  0
    4.4500   -1.2667    0.0000 C   0  0  0  0  0  0  0  0  0  0  0  0
    3.7375   -1.6875    0.0000 C   0  0  0  0  0  0  0  0  0  0  0  0
    3.7375   -0.0292    0.0000 O   0  0  0  0  0  0  0  0  0  0  0  0
    5.1667   -1.6792    0.0000 C   0  0  0  0  0  0  0  0  0  0  0  0
    5.8792   -1.2667    0.0000 O   0  0  0  0  0  0  0  0  0  0  0  0
    4.4500   -2.9250    0.0000 C   0  0  0  0  0  0  0  0  0  0  0  0
    2.3042   -0.0292    0.0000 C   0  0  0  0  0  0  0  0  0  0  0  0
    3.7375   -2.5125    0.0000 C   0  0  0  0  0  0  0  0  0  0  0  0
    5.1667   -2.5125    0.0000 C   0  0  0  0  0  0  0  0  0  0  0  0
  2  1  1  0
  3  4  2  0
  4  2  1  0
  5  1  2  0
  6  3  1  0
  7  6  1  0
  8 10  2  0
  9  1  1  0
 10  4  1  0
 11  8  1  0
 11  6  2  0
M  END
>  <ID>  (758) 


>  <MOLENAME>  (758) 
RESORCINOL MONOACETATE

>  <therap>  (758) 
antiseborrheic, antipruritic

>  <ref>  (758) 
Arch Derm 72:153 (1955); Artificial Cells Blood Substitutes Biotechnol 16:771 (1988)

>  <cas#>  (758) 
102-29-4

>  <source>  (758) 
synthetic

>  <status>  (758) 
USP

>  <tradename>  (758) 
EURESOL

>  <SMILES>  (758) 
CC(=O)Oc1cc(O)ccc1

>  <standardized_failed>  (758) 
False

$$$$

     RDKit          2D

 30 31  0  0  0  0  0  0  0  0999 V2000
    4.3125   -4.7667    0.0000 C   0  0  0  0  0  0  0  0  0  0  0  0
    5.7417   -4.7667    0.0000 C   0  0  0  0  0  0  0  0  0  0  0  0
    5.0292   -4.3625    0.0000 C   0  0  0  0  0  0  0  0  0  0  0  0
    4.3125   -5.5917    0.0000 C   0  0  0  0  0  0  0  0  0  0  0  0
    5.7417   -5.5917    0.0000 C   0  0  0  0  0  0  0  0  0  0  0  0
    3.6000   -4.3542    0.0000 C   0  0  0  0  0  0  0  0  0  0  0  0
    5.0250   -6.0125    0.0000 N   0  0  0  0  0  0  0  0  0  0  0  0
    3.6000   -1.8875    0.0000 N   0  0  0  0  0  0  0  0  0  0  0  0
    5.0250   -3.5375    0.0000 C   0  0  0  0  0  0  0  0  0  0  0  0
    6.4542   -4.3542    0.0000 C   0  0  0  0  0  0  0  0  0  0  0  0
    4.3125   -2.3000    0.0000 C   0  0  0  0  0  0  0  0  0  0  0  0
    4.3125   -3.1250    0.0000 C   0  0  0  0  0  0  0  0  0  0  0  0
    2.8792   -4.7667    0.0000 O   0  0  0  0  0  0  0  0  0  0  0  0
    2.8792   -2.3000    0.0000 O   0  0  0  0  0  0  0  0  0  0  0  0
    3.6000   -1.0625    0.0000 O   0  0  0  0  0  0  0  0  0  0  0  0
    3.6000   -3.5292    0.0000 O   0  0  0  0  0  0  0  0  0  0  0  0
    6.4500   -3.5292    0.0000 O   0  0  0  0  0  0  0  0  0  0  0  0
    7.1667   -4.7667    0.0000 O   0  0  0  0  0  0  0  0  0  0  0  0
    3.5917   -6.0042    0.0000 C   0  0  0  0  0  0  0  0  0  0  0  0
    6.4542   -6.0042    0.0000 C   0  0  0  0  0  0  0  0  0  0  0  0
    5.7417   -3.1250    0.0000 C   0  0  0  0  0  0  0  0  0  0  0  0
    2.1667   -4.3542    0.0000 C   0  0  0  0  0  0  0  0  0  0  0  0
    5.0250   -1.8792    0.0000 C   0  0  0  0  0  0  0  0  0  0  0  0
    5.7417   -2.2917    0.0000 C   0  0  0  0  0  0  0  0  0  0  0  0
    9.3250   -4.3417    0.0000 O   0  0  0  0  0  0  0  0  0  0  0  0
    7.8792   -4.3542    0.0000 C   0  0  0  0  0  0  0  0  0  0  0  0
    8.6000   -4.7625    0.0000 C   0  0  0  0  0  0  0  0  0  0  0  0
    9.9792   -4.8042    0.0000 C   0  0  0  0  0  0  0  0  0  0  0  0
    1.4542   -4.7667    0.0000 C   0  0  0  0  0  0  0  0  0  0  0  0
    2.1667   -3.5292    0.0000 C   0  0  0  0  0  0  0  0  0  0  0  0
  2  3  1  0
  3  1  1  0
  4  1  2  0
  5  7  1  0
  6  1  1  0
  7  4  1  0
  8 11  1  0
  9  3  1  0
 10  2  1  0
 11 12  2  0
 12  9  1  0
 13  6  1  0
 14  8  1  0
 15  8  2  0
 16  6  2  0
 17 10  2  0
 18 10  1  0
 19  4  1  0
 20  5  1  0
 21  9  2  0
 22 13  1  0
 23 24  2  0
 24 21  1  0
 25 27  1  0
 26 18  1  0
 27 26  1  0
 28 25  1  0
 29 22  1  0
 30 22  1  0
  2  5  2  0
 11 23  1  0
M  CHG  2   8   1  14  -1
M  END
>  <ID>  (759) 


>  <MOLENAME>  (759) 
NIMODIPINE

>  <therap>  (759) 
vasodilator

>  <ref>  (759) 
Am. J. Cardiol. (1985), 55(3), 144B-148B; Naunyn-Schmiedeberg's Arch. Pharmacol. (1979), 310(1), 69-78; Br. J. Pharmacol. (1979), 67(3), 409P-410P

>  <cas#>  (759) 
66085-59-4

>  <source>  (759) 
synthetic; Bay-E9736

>  <status>  (759) 
USP, INN, BAN

>  <tradename>  (759) 
NIMOTOP

>  <SMILES>  (759) 
COCCOC(=O)C1=C(C)NC(C)=C(C(=O)OC(C)C)C1c1cccc([N+](=O)[O-])c1

>  <standardized_failed>  (759) 
False

$$$$

     RDKit          2D

 16 17  0  0  0  0  0  0  0  0999 V2000
    1.6625   -0.7750    0.0000 C   0  0  0  0  0  0  0  0  0  0  0  0
    1.6625    0.0500    0.0000 C   0  0  0  0  0  0  0  0  0  0  0  0
    0.9417   -1.1917    0.0000 N   0  0  0  0  0  0  0  0  0  0  0  0
    2.4417   -1.0292    0.0000 N   0  0  0  0  0  0  0  0  0  0  0  0
    0.2292    0.0500    0.0000 N   0  0  0  0  0  0  0  0  0  0  0  0
    2.4417    0.3083    0.0000 N   0  0  0  0  0  0  0  0  0  0  0  0
    0.9417    0.4625    0.0000 C   0  0  0  0  0  0  0  0  0  0  0  0
    0.2292   -0.7792    0.0000 C   0  0  0  0  0  0  0  0  0  0  0  0
    2.9292   -0.3625    0.0000 C   0  0  0  0  0  0  0  0  0  0  0  0
    0.9417    1.2875    0.0000 O   0  0  0  0  0  0  0  0  0  0  0  0
    2.7042   -1.8167    0.0000 C   0  0  0  0  0  0  0  0  0  0  0  0
   -0.4833   -1.1917    0.0000 N   0  0  0  0  0  0  0  0  0  0  0  0
    3.5042   -1.9875    0.0000 O   0  0  0  0  0  0  0  0  0  0  0  0
    5.4167   -0.9292    0.0000 O   0  0  0  0  0  0  0  0  0  0  0  0
    4.8667   -1.5417    0.0000 C   0  0  0  0  0  0  0  0  0  0  0  0
    4.0625   -1.3667    0.0000 C   0  0  0  0  0  0  0  0  0  0  0  0
  2  1  2  0
  3  1  1  0
  4  1  1  0
  5  8  1  0
  6  2  1  0
  7  2  1  0
  8  3  2  0
  9  4  1  0
 10  7  2  0
 11  4  1  0
 12  8  1  0
 13 11  1  0
 14 15  1  0
 15 16  1  0
 16 13  1  0
  9  6  2  0
  7  5  1  0
M  END
>  <ID>  (760) 


>  <MOLENAME>  (760) 
ACYCLOVIR

>  <therap>  (760) 
antiviral

>  <ref>  (760) 
N Engl J Med 308:1448 (1983); 310:1545 (1984); 327:782 (1992)

>  <cas#>  (760) 
59277-89-3

>  <source>  (760) 
synthetic

>  <status>  (760) 
USP, INN, BAN, JAN

>  <tradename>  (760) 
ZOVIRAX

>  <SMILES>  (760) 
Nc1nc2c(ncn2COCCO)c(=O)[nH]1

>  <standardized_failed>  (760) 
False

$$$$

     RDKit          2D

 38 38  0  0  0  0  0  0  0  0999 V2000
    2.9792   -4.0792    0.0000 C   0  0  0  0  0  0  0  0  0  0  0  0
    3.7000   -3.6667    0.0000 C   0  0  0  0  0  0  0  0  0  0  0  0
    2.9792   -4.9042    0.0000 C   0  0  0  0  0  0  0  0  0  0  0  0
    2.2667   -3.6667    0.0000 C   0  0  0  0  0  0  0  0  0  0  0  0
    4.4125   -4.0792    0.0000 C   0  0  0  0  0  0  0  0  0  0  0  0
    6.5500   -3.6792    0.0000 C   0  0  0  0  0  0  0  0  0  0  0  0
    5.1250   -3.6750    0.0000 C   0  0  0  0  0  0  0  0  0  0  0  0
   10.1042   -4.9250    0.0000 C   0  0  0  0  0  0  0  0  0  0  0  0
    7.9750   -3.6792    0.0000 C   0  0  0  0  0  0  0  0  0  0  0  0
    5.8375   -4.0875    0.0000 C   0  0  0  0  0  0  0  0  0  0  0  0
    7.2625   -4.0917    0.0000 C   0  0  0  0  0  0  0  0  0  0  0  0
    9.3917   -5.3292    0.0000 O   0  0  0  0  0  0  0  0  0  0  0  0
    8.6875   -4.0917    0.0000 C   0  0  0  0  0  0  0  0  0  0  0  0
   10.1125   -4.1000    0.0000 O   0  0  0  0  0  0  0  0  0  0  0  0
    9.4000   -3.6875    0.0000 C   0  0  0  0  0  0  0  0  0  0  0  0
    2.2667   -5.3167    0.0000 C   0  0  0  0  0  0  0  0  0  0  0  0
    1.5625   -4.0792    0.0000 C   0  0  0  0  0  0  0  0  0  0  0  0
    3.7000   -5.3167    0.0000 C   0  0  0  0  0  0  0  0  0  0  0  0
    1.5542   -3.2542    0.0000 C   0  0  0  0  0  0  0  0  0  0  0  0
    2.9792   -3.2417    0.0000 C   0  0  0  0  0  0  0  0  0  0  0  0
    1.5625   -4.9042    0.0000 C   0  0  0  0  0  0  0  0  0  0  0  0
   10.8250   -5.3375    0.0000 C   0  0  0  0  0  0  0  0  0  0  0  0
    5.1250   -2.8500    0.0000 C   0  0  0  0  0  0  0  0  0  0  0  0
    7.9750   -2.8542    0.0000 C   0  0  0  0  0  0  0  0  0  0  0  0
   11.5375   -4.9250    0.0000 C   0  0  0  0  0  0  0  0  0  0  0  0
   12.2500    1.2458    0.0000 C   0  0  0  0  0  0  0  0  0  0  0  0
   12.9625    0.8333    0.0000 C   0  0  0  0  0  0  0  0  0  0  0  0
   12.2500   -2.8667    0.0000 C   0  0  0  0  0  0  0  0  0  0  0  0
   12.9625   -2.4542    0.0000 C   0  0  0  0  0  0  0  0  0  0  0  0
   12.9625   -1.6375    0.0000 C   0  0  0  0  0  0  0  0  0  0  0  0
   13.6750   -1.2250    0.0000 C   0  0  0  0  0  0  0  0  0  0  0  0
   13.6750   -0.4042    0.0000 C   0  0  0  0  0  0  0  0  0  0  0  0
   14.3875    0.0083    0.0000 C   0  0  0  0  0  0  0  0  0  0  0  0
   14.3875    0.8333    0.0000 C   0  0  0  0  0  0  0  0  0  0  0  0
   13.6750    1.2458    0.0000 C   0  0  0  0  0  0  0  0  0  0  0  0
   11.5375   -4.1042    0.0000 C   0  0  0  0  0  0  0  0  0  0  0  0
   12.2500   -3.6917    0.0000 C   0  0  0  0  0  0  0  0  0  0  0  0
   11.5375    0.8333    0.0000 C   0  0  0  0  0  0  0  0  0  0  0  0
  2  1  1  0
  3  1  2  0
  4  1  1  0
  5  2  2  0
  6 10  1  0
  7  5  1  0
  8 14  1  0
  9 11  1  0
 10  7  2  0
 11  6  2  0
 12  8  2  0
 13  9  2  0
 14 15  1  0
 15 13  1  0
 16  3  1  0
 17  4  1  0
 18  3  1  0
 19  4  1  0
 20  4  1  0
 21 17  1  0
 22  8  1  0
 23  7  1  0
 24  9  1  0
 25 22  1  0
 26 27  1  0
 27 35  1  0
 28 37  1  0
 29 28  1  0
 30 29  1  0
 31 30  1  0
 32 31  1  0
 33 32  1  0
 34 33  1  0
 35 34  1  0
 36 25  1  0
 37 36  1  0
 38 26  1  0
 16 21  1  0
M  END
>  <ID>  (761) 


>  <MOLENAME>  (761) 
RETINYL PALMITATE

>  <therap>  (761) 
provitamin, antixerophthalamic

>  <ref>  (761) 
J Nutr 127:1686S (1997); J Food Drug Anal 10:262 (2002)

>  <cas#>  (761) 
79-81-2

>  <source>  (761) 
semisynthetic; Vitamin A palmitate

>  <status>  (761) 
USP, JAN

>  <tradename>  (761) 
nan

>  <SMILES>  (761) 
CCCCCCCCCCCCCCCC(=O)OC/C=C(C)/C=C/C=C(C)/C=C/C1=C(C)CCCC1(C)C

>  <standardized_failed>  (761) 
False

$$$$

     RDKit          2D

 19 21  0  0  0  0  0  0  0  0999 V2000
    2.1667   -0.7250    0.0000 N   0  0  0  0  0  0  0  0  0  0  0  0
    1.6792   -1.4000    0.0000 C   0  0  0  0  0  0  0  0  0  0  0  0
    1.6792   -0.0542    0.0000 C   0  0  0  0  0  0  0  0  0  0  0  0
    3.4042   -1.4417    0.0000 C   0  0  0  0  0  0  0  0  0  0  0  0
    4.2292   -1.4417    0.0000 N   0  0  0  0  0  0  0  0  0  0  0  0
    2.9917   -0.7250    0.0000 C   0  0  0  0  0  0  0  0  0  0  0  0
    0.8917   -0.3125    0.0000 C   0  0  0  0  0  0  0  0  0  0  0  0
    0.8917   -1.1417    0.0000 C   0  0  0  0  0  0  0  0  0  0  0  0
    4.6417   -0.7292    0.0000 C   0  0  0  0  0  0  0  0  0  0  0  0
    1.9375    0.7333    0.0000 O   0  0  0  0  0  0  0  0  0  0  0  0
    1.9375   -2.1792    0.0000 O   0  0  0  0  0  0  0  0  0  0  0  0
    3.4042   -0.0125    0.0000 C   0  0  0  0  0  0  0  0  0  0  0  0
    2.9917   -2.1542    0.0000 O   0  0  0  0  0  0  0  0  0  0  0  0
    5.4667   -0.7292    0.0000 O   0  0  0  0  0  0  0  0  0  0  0  0
    4.2292   -0.0167    0.0000 C   0  0  0  0  0  0  0  0  0  0  0  0
    0.1750    0.1000    0.0000 C   0  0  0  0  0  0  0  0  0  0  0  0
    0.1750   -1.5542    0.0000 C   0  0  0  0  0  0  0  0  0  0  0  0
   -0.5375   -1.1417    0.0000 C   0  0  0  0  0  0  0  0  0  0  0  0
   -0.5375   -0.3125    0.0000 C   0  0  0  0  0  0  0  0  0  0  0  0
  2  1  1  0
  3  1  1  0
  4  6  1  0
  5  4  1  0
  6  1  1  0
  7  3  1  0
  8  2  1  0
  9 15  1  0
 10  3  2  0
 11  2  2  0
 12  6  1  0
 13  4  2  0
 14  9  2  0
 15 12  1  0
 16  7  2  0
 17  8  2  0
 18 17  1  0
 19 16  1  0
  8  7  1  0
  9  5  1  0
 18 19  2  0
M  END
>  <ID>  (762) 


>  <MOLENAME>  (762) 
THALIDOMIDE

>  <therap>  (762) 
hypnotic

>  <ref>  (762) 
Drug Saf 7:116 (1992); J Am Pharm Assoc NS37:307 (1997); Clin Ther 25:342 (2003)

>  <cas#>  (762) 
50-35-1

>  <source>  (762) 
synthetic; K-17

>  <status>  (762) 
USP, INN, BAN

>  <tradename>  (762) 
THALOMID

>  <SMILES>  (762) 
O=C1CCC(N2C(=O)c3ccccc3C2=O)C(=O)N1

>  <standardized_failed>  (762) 
False

$$$$

     RDKit          2D

 26 27  0  0  0  0  0  0  0  0999 V2000
    1.7667   -1.1000    0.0000 C   0  0  0  0  0  0  0  0  0  0  0  0
    3.2000   -1.1000    0.0000 C   0  0  0  0  0  0  0  0  0  0  0  0
    2.4875   -0.6917    0.0000 C   0  0  0  0  0  0  0  0  0  0  0  0
    3.2000   -1.9167    0.0000 C   0  0  0  0  0  0  0  0  0  0  0  0
    1.7667   -1.9250    0.0000 C   0  0  0  0  0  0  0  0  0  0  0  0
    2.4792   -2.3375    0.0000 N   0  0  0  0  0  0  0  0  0  0  0  0
    3.9125    1.7958    0.0000 N   0  0  0  0  0  0  0  0  0  0  0  0
    2.4792    0.1333    0.0000 C   0  0  0  0  0  0  0  0  0  0  0  0
    1.0542   -0.6875    0.0000 C   0  0  0  0  0  0  0  0  0  0  0  0
    3.9125   -0.6875    0.0000 C   0  0  0  0  0  0  0  0  0  0  0  0
    3.2000    1.3750    0.0000 C   0  0  0  0  0  0  0  0  0  0  0  0
    3.2000    0.5458    0.0000 C   0  0  0  0  0  0  0  0  0  0  0  0
    4.6292    1.3833    0.0000 O   0  0  0  0  0  0  0  0  0  0  0  0
    3.9042    2.6125    0.0000 O   0  0  0  0  0  0  0  0  0  0  0  0
    1.0542    0.1375    0.0000 O   0  0  0  0  0  0  0  0  0  0  0  0
    3.9042    0.1375    0.0000 O   0  0  0  0  0  0  0  0  0  0  0  0
    0.3417   -1.1000    0.0000 O   0  0  0  0  0  0  0  0  0  0  0  0
    4.6292   -1.0917    0.0000 O   0  0  0  0  0  0  0  0  0  0  0  0
    1.0542   -2.3375    0.0000 C   0  0  0  0  0  0  0  0  0  0  0  0
    3.9167   -2.3292    0.0000 C   0  0  0  0  0  0  0  0  0  0  0  0
    1.7667    0.5458    0.0000 C   0  0  0  0  0  0  0  0  0  0  0  0
    2.4792    1.7875    0.0000 C   0  0  0  0  0  0  0  0  0  0  0  0
    1.7667    1.3750    0.0000 C   0  0  0  0  0  0  0  0  0  0  0  0
    5.3417   -0.6792    0.0000 C   0  0  0  0  0  0  0  0  0  0  0  0
   -0.3708   -0.6875    0.0000 C   0  0  0  0  0  0  0  0  0  0  0  0
    6.0542   -1.0917    0.0000 C   0  0  0  0  0  0  0  0  0  0  0  0
  2  3  1  0
  3  1  1  0
  4  6  1  0
  5  1  2  0
  6  5  1  0
  7 11  1  0
  8  3  1  0
  9  1  1  0
 10  2  1  0
 11 12  2  0
 12  8  1  0
 13  7  1  0
 14  7  2  0
 15  9  2  0
 16 10  2  0
 17  9  1  0
 18 10  1  0
 19  5  1  0
 20  4  1  0
 21  8  2  0
 22 23  2  0
 23 21  1  0
 24 18  1  0
 25 17  1  0
 26 24  1  0
  4  2  2  0
 11 22  1  0
M  CHG  2   7   1  13  -1
M  END
>  <ID>  (763) 


>  <MOLENAME>  (763) 
NITRENDIPINE

>  <therap>  (763) 
antihypertensive

>  <ref>  (763) 
Circulation Res 56:868 (1985); Br J Pharmacol 102:337 (1991); 105:997 (1992)

>  <cas#>  (763) 
84845-75-0

>  <source>  (763) 
synthetic; Bay-E5009

>  <status>  (763) 
USAN, INN, BAN, JAN

>  <tradename>  (763) 
BAYPRESS

>  <SMILES>  (763) 
CCOC(=O)C1=C(C)NC(C)=C(C(=O)OC)C1c1cccc([N+](=O)[O-])c1

>  <standardized_failed>  (763) 
False

$$$$

     RDKit          2D

 24 23  0  0  0  0  0  0  0  0999 V2000
    1.7167   -0.1542    0.0000 N   0  0  0  0  0  0  0  0  0  0  0  0
    2.5792   -0.9375    0.0000 Cl  0  0  0  0  0  0  0  0  0  0  0  0
    1.3042    0.5625    0.0000 C   0  0  0  0  0  0  0  0  0  0  0  0
    0.4792    0.5625    0.0000 C   0  0  0  0  0  0  0  0  0  0  0  0
    2.5417   -0.1542    0.0000 C   0  0  0  0  0  0  0  0  0  0  0  0
    1.3042   -0.8667    0.0000 C   0  0  0  0  0  0  0  0  0  0  0  0
    0.8917   -0.1542    0.0000 C   0  0  0  0  0  0  0  0  0  0  0  0
    0.0667    1.2750    0.0000 C   0  0  0  0  0  0  0  0  0  0  0  0
    0.0667   -0.1500    0.0000 C   0  0  0  0  0  0  0  0  0  0  0  0
    3.2542    0.2583    0.0000 C   0  0  0  0  0  0  0  0  0  0  0  0
   10.3792    0.2583    0.0000 C   0  0  0  0  0  0  0  0  0  0  0  0
    9.6667   -0.1542    0.0000 C   0  0  0  0  0  0  0  0  0  0  0  0
    6.1042    0.2583    0.0000 C   0  0  0  0  0  0  0  0  0  0  0  0
    6.8167   -0.1542    0.0000 C   0  0  0  0  0  0  0  0  0  0  0  0
    7.5292    0.2583    0.0000 C   0  0  0  0  0  0  0  0  0  0  0  0
    8.2417   -0.1542    0.0000 C   0  0  0  0  0  0  0  0  0  0  0  0
    8.9542    0.2583    0.0000 C   0  0  0  0  0  0  0  0  0  0  0  0
    3.9667   -0.1542    0.0000 C   0  0  0  0  0  0  0  0  0  0  0  0
    4.6792    0.2583    0.0000 C   0  0  0  0  0  0  0  0  0  0  0  0
    5.3917   -0.1542    0.0000 C   0  0  0  0  0  0  0  0  0  0  0  0
   11.0917   -0.1500    0.0000 C   0  0  0  0  0  0  0  0  0  0  0  0
   -0.7583    1.2708    0.0000 C   0  0  0  0  0  0  0  0  0  0  0  0
   -0.7583   -0.1500    0.0000 C   0  0  0  0  0  0  0  0  0  0  0  0
   -1.1708    0.5583    0.0000 C   0  0  0  0  0  0  0  0  0  0  0  0
  3  1  1  0
  4  3  1  0
  5  1  1  0
  6  1  1  0
  7  1  1  0
  8  4  2  0
  9  4  1  0
 10  5  1  0
 11 12  1  0
 12 17  1  0
 13 20  1  0
 14 13  1  0
 15 14  1  0
 16 15  1  0
 17 16  1  0
 18 10  1  0
 19 18  1  0
 20 19  1  0
 21 11  1  0
 22  8  1  0
 23  9  2  0
 24 22  2  0
 23 24  1  0
M  CHG  2   1   1   2  -1
M  END
>  <ID>  (764) 


>  <MOLENAME>  (764) 
BENZALKONIUM CHLORIDE

>  <therap>  (764) 
antiinfective (topical)

>  <ref>  (764) 
Toxicol Appl Pharmacol 20:89 (1971); J Hosp Infect 38:283 (1998)

>  <cas#>  (764) 
8001-54-5

>  <source>  (764) 
synthetic

>  <status>  (764) 
USAN, NF, INN, BAN, JAN

>  <tradename>  (764) 
ROCCAL

>  <SMILES>  (764) 
CCCCCCCCCCCCC[N+](C)(C)Cc1ccccc1

>  <standardized_failed>  (764) 
False

$$$$

     RDKit          2D

 24 27  0  0  0  0  0  0  0  0999 V2000
    5.8250   -3.0292    0.0000 C   0  0  0  0  0  0  0  0  0  0  0  0
    5.1042   -1.7875    0.0000 N   0  0  0  0  0  0  0  0  0  0  0  0
    4.3917   -3.0292    0.0000 C   0  0  0  0  0  0  0  0  0  0  0  0
    4.3917   -2.2000    0.0000 C   0  0  0  0  0  0  0  0  0  0  0  0
    5.1042   -3.4417    0.0000 C   0  0  0  0  0  0  0  0  0  0  0  0
    5.8167   -2.1917    0.0000 C   0  0  0  0  0  0  0  0  0  0  0  0
    3.6792   -1.7917    0.0000 C   0  0  0  0  0  0  0  0  0  0  0  0
    2.9667   -2.2042    0.0000 C   0  0  0  0  0  0  0  0  0  0  0  0
    5.1042   -0.9625    0.0000 C   0  0  0  0  0  0  0  0  0  0  0  0
    3.6792   -3.4417    0.0000 C   0  0  0  0  0  0  0  0  0  0  0  0
    6.5417   -3.4417    0.0000 C   0  0  0  0  0  0  0  0  0  0  0  0
    2.9667   -3.0292    0.0000 C   0  0  0  0  0  0  0  0  0  0  0  0
    2.2542   -1.7917    0.0000 N   0  0  0  0  0  0  0  0  0  0  0  0
    4.6875   -0.2500    0.0000 C   0  0  0  0  0  0  0  0  0  0  0  0
    5.5125   -0.2417    0.0000 C   0  0  0  0  0  0  0  0  0  0  0  0
    5.1042   -4.2667    0.0000 O   0  0  0  0  0  0  0  0  0  0  0  0
    0.8292   -0.9667    0.0000 N   0  0  0  0  0  0  0  0  0  0  0  0
    6.5417   -4.2667    0.0000 O   0  0  0  0  0  0  0  0  0  0  0  0
    2.2500   -3.4375    0.0000 F   0  0  0  0  0  0  0  0  0  0  0  0
    7.2542   -3.0250    0.0000 O   0  0  0  0  0  0  0  0  0  0  0  0
    1.5417   -2.2000    0.0000 C   0  0  0  0  0  0  0  0  0  0  0  0
    2.2542   -0.9667    0.0000 C   0  0  0  0  0  0  0  0  0  0  0  0
    0.8292   -1.7917    0.0000 C   0  0  0  0  0  0  0  0  0  0  0  0
    1.5417   -0.5500    0.0000 C   0  0  0  0  0  0  0  0  0  0  0  0
  2  6  1  0
  3  5  1  0
  4  2  1  0
  5  1  1  0
  6  1  2  0
  7  4  2  0
  8  7  1  0
  9  2  1  0
 10  3  2  0
 11  1  1  0
 12 10  1  0
 13  8  1  0
 14  9  1  0
 15  9  1  0
 16  5  2  0
 17 24  1  0
 18 11  2  0
 19 12  1  0
 20 11  1  0
 21 13  1  0
 22 13  1  0
 23 21  1  0
 24 22  1  0
  4  3  1  0
 14 15  1  0
  8 12  2  0
 23 17  1  0
M  END
>  <ID>  (765) 


>  <MOLENAME>  (765) 
CIPROFLOXACIN

>  <therap>  (765) 
antibacterial, fungicide

>  <ref>  (765) 
Antimicrob Agents Chemother 28:128 (1985); J Antimicrob Chemother 17:605, 623 (1986)

>  <cas#>  (765) 
85721-33-1

>  <source>  (765) 
synthetic

>  <status>  (765) 
USP, INN, BAN

>  <tradename>  (765) 
CIPRO

>  <SMILES>  (765) 
O=C(O)c1cn(C2CC2)c2cc(N3CCNCC3)c(F)cc2c1=O

>  <standardized_failed>  (765) 
False

$$$$

     RDKit          2D

 26 28  0  0  0  0  0  0  0  0999 V2000
    2.7417   -2.5542    0.0000 N   0  0  0  0  0  0  0  0  0  0  0  0
    3.4167   -3.0417    0.0000 N   0  0  0  0  0  0  0  0  0  0  0  0
    2.9917   -1.7750    0.0000 C   0  0  0  0  0  0  0  0  0  0  0  0
    4.0792   -2.5542    0.0000 C   0  0  0  0  0  0  0  0  0  0  0  0
    3.8167   -1.7667    0.0000 C   0  0  0  0  0  0  0  0  0  0  0  0
    3.4167   -6.3417    0.0000 S   0  0  0  0  0  0  0  0  0  0  0  0
    2.5042   -1.1042    0.0000 C   0  0  0  0  0  0  0  0  0  0  0  0
    3.4167   -5.5167    0.0000 C   0  0  0  0  0  0  0  0  0  0  0  0
    3.4167   -3.8667    0.0000 C   0  0  0  0  0  0  0  0  0  0  0  0
    4.8625   -2.8042    0.0000 C   0  0  0  0  0  0  0  0  0  0  0  0
    2.7042   -6.7542    0.0000 O   0  0  0  0  0  0  0  0  0  0  0  0
    4.1375   -6.7542    0.0000 O   0  0  0  0  0  0  0  0  0  0  0  0
    3.4167   -7.1667    0.0000 N   0  0  0  0  0  0  0  0  0  0  0  0
    2.7042   -5.1042    0.0000 C   0  0  0  0  0  0  0  0  0  0  0  0
    4.1375   -5.1042    0.0000 C   0  0  0  0  0  0  0  0  0  0  0  0
    2.7042   -4.2792    0.0000 C   0  0  0  0  0  0  0  0  0  0  0  0
    4.1375   -4.2792    0.0000 C   0  0  0  0  0  0  0  0  0  0  0  0
    2.8417   -0.3542    0.0000 F   0  0  0  0  0  0  0  0  0  0  0  0
    1.6875   -1.1917    0.0000 F   0  0  0  0  0  0  0  0  0  0  0  0
    1.9167   -0.5167    0.0000 F   0  0  0  0  0  0  0  0  0  0  0  0
    5.0375   -3.6042    0.0000 C   0  0  0  0  0  0  0  0  0  0  0  0
    5.4667   -2.2500    0.0000 C   0  0  0  0  0  0  0  0  0  0  0  0
    6.2542   -2.4917    0.0000 C   0  0  0  0  0  0  0  0  0  0  0  0
    5.8167   -3.8625    0.0000 C   0  0  0  0  0  0  0  0  0  0  0  0
    6.4292   -3.3042    0.0000 C   0  0  0  0  0  0  0  0  0  0  0  0
    7.2167   -3.5542    0.0000 C   0  0  0  0  0  0  0  0  0  0  0  0
  2  1  1  0
  3  1  2  0
  4  2  1  0
  5  3  1  0
  6  8  1  0
  7  3  1  0
  8 15  2  0
  9  2  1  0
 10  4  1  0
 11  6  2  0
 12  6  2  0
 13  6  1  0
 14 16  2  0
 15 17  1  0
 16  9  1  0
 17  9  2  0
 18  7  1  0
 19  7  1  0
 20  7  1  0
 21 10  2  0
 22 10  1  0
 23 22  2  0
 24 21  1  0
 25 23  1  0
 26 25  1  0
  4  5  2  0
 14  8  1  0
 24 25  2  0
M  END
>  <ID>  (766) 


>  <MOLENAME>  (766) 
CELECOXIB

>  <therap>  (766) 
antiarthritic, cyclooxygenase2 inhibitor

>  <ref>  (766) 
Arthritis Rheum 41:1591 (1998); JAMA 284:1247 (2000); N Engl J Med 342:1946 (2000)

>  <cas#>  (766) 
169590-42-5

>  <source>  (766) 
synthetic; SC-58635

>  <status>  (766) 
USAN, INN, BAN

>  <tradename>  (766) 
CELEBREX

>  <SMILES>  (766) 
Cc1ccc(-c2cc(C(F)(F)F)nn2-c2ccc(S(N)(=O)=O)cc2)cc1

>  <standardized_failed>  (766) 
False

$$$$

     RDKit          2D

 52 54  0  0  0  0  0  0  0  0999 V2000
    6.2167   -3.6167    0.0000 C   0  0  0  0  0  0  0  0  0  0  0  0
    3.3917   -3.4917    0.0000 C   0  0  0  0  0  0  0  0  0  0  0  0
    1.9042   -2.8167    0.0000 C   0  0  0  0  0  0  0  0  0  0  0  0
    0.8667   -0.8417    0.0000 C   0  0  0  0  0  0  0  0  0  0  0  0
    2.6917   -3.0500    0.0000 C   0  0  0  0  0  0  0  0  0  0  0  0
    6.9417   -3.2125    0.0000 C   0  0  0  0  0  0  0  0  0  0  0  0
    4.7375   -2.8500    0.0000 C   0  0  0  0  0  0  0  0  0  0  0  0
    1.3750   -0.1917    0.0000 C   0  0  0  0  0  0  0  0  0  0  0  0
    4.2250   -3.4917    0.0000 C   0  0  0  0  0  0  0  0  0  0  0  0
    2.9542   -0.1542    0.0000 N   0  0  0  0  0  0  0  0  0  0  0  0
    1.4042   -2.1625    0.0000 O   0  0  0  0  0  0  0  0  0  0  0  0
    5.5000   -3.2250    0.0000 O   0  0  0  0  0  0  0  0  0  0  0  0
    2.6000   -6.2917    0.0000 C   0  0  0  0  0  0  0  0  0  0  0  0
    7.6500   -3.6292    0.0000 C   0  0  0  0  0  0  0  0  0  0  0  0
    4.4375   -2.0792    0.0000 C   0  0  0  0  0  0  0  0  0  0  0  0
    2.6000   -4.8667    0.0000 C   0  0  0  0  0  0  0  0  0  0  0  0
    2.1417    0.1583    0.0000 C   0  0  0  0  0  0  0  0  0  0  0  0
    3.0125   -5.5750    0.0000 C   0  0  0  0  0  0  0  0  0  0  0  0
    6.2167   -4.4292    0.0000 O   0  0  0  0  0  0  0  0  0  0  0  0
    1.7667   -4.8667    0.0000 O   0  0  0  0  0  0  0  0  0  0  0  0
    0.7542   -1.6542    0.0000 C   0  0  0  0  0  0  0  0  0  0  0  0
    1.7792   -6.3000    0.0000 C   0  0  0  0  0  0  0  0  0  0  0  0
    3.0042   -4.1500    0.0000 O   0  0  0  0  0  0  0  0  0  0  0  0
    1.3542   -5.5875    0.0000 C   0  0  0  0  0  0  0  0  0  0  0  0
    7.6500   -4.4542    0.0000 C   0  0  0  0  0  0  0  0  0  0  0  0
    2.9542   -1.0000    0.0000 C   0  0  0  0  0  0  0  0  0  0  0  0
    8.3542   -3.2250    0.0000 N   0  0  0  0  0  0  0  0  0  0  0  0
    3.6167   -1.9542    0.0000 C   0  0  0  0  0  0  0  0  0  0  0  0
    1.4292   -3.5125    0.0000 O   0  0  0  0  0  0  0  0  0  0  0  0
    6.9375   -4.8625    0.0000 C   0  0  0  0  0  0  0  0  0  0  0  0
    3.6125   -1.1875    0.0000 C   0  0  0  0  0  0  0  0  0  0  0  0
    0.2167   -0.3375    0.0000 O   0  0  0  0  0  0  0  0  0  0  0  0
    6.9542   -2.3792    0.0000 O   0  0  0  0  0  0  0  0  0  0  0  0
    1.0667    0.5833    0.0000 O   0  0  0  0  0  0  0  0  0  0  0  0
    5.2417   -1.9167    0.0000 O   0  0  0  0  0  0  0  0  0  0  0  0
    2.1875   -7.0500    0.0000 O   0  0  0  0  0  0  0  0  0  0  0  0
    1.3667   -7.0167    0.0000 O   0  0  0  0  0  0  0  0  0  0  0  0
    0.1042   -1.1542    0.0000 C   0  0  0  0  0  0  0  0  0  0  0  0
    3.6375    0.3125    0.0000 C   0  0  0  0  0  0  0  0  0  0  0  0
    3.0042   -2.2542    0.0000 C   0  0  0  0  0  0  0  0  0  0  0  0
    4.5917   -4.2375    0.0000 C   0  0  0  0  0  0  0  0  0  0  0  0
    3.2042   -6.8292    0.0000 C   0  0  0  0  0  0  0  0  0  0  0  0
    4.7000   -1.3000    0.0000 C   0  0  0  0  0  0  0  0  0  0  0  0
    2.1417    0.9083    0.0000 C   0  0  0  0  0  0  0  0  0  0  0  0
   -0.0208   -1.9667    0.0000 C   0  0  0  0  0  0  0  0  0  0  0  0
    0.5250   -5.5917    0.0000 C   0  0  0  0  0  0  0  0  0  0  0  0
    8.3625   -2.4000    0.0000 C   0  0  0  0  0  0  0  0  0  0  0  0
    9.0542   -3.6292    0.0000 C   0  0  0  0  0  0  0  0  0  0  0  0
    6.9292   -5.6875    0.0000 C   0  0  0  0  0  0  0  0  0  0  0  0
    4.4250   -0.7792    0.0000 C   0  0  0  0  0  0  0  0  0  0  0  0
    2.6000   -7.7667    0.0000 C   0  0  0  0  0  0  0  0  0  0  0  0
   -0.1333   -2.7917    0.0000 C   0  0  0  0  0  0  0  0  0  0  0  0
  2  9  1  0
  3  5  1  0
  4 21  1  0
  5  2  1  0
  6  1  1  0
  7 12  1  6
  8 17  1  0
  9  7  1  0
 10 26  1  0
 11  3  1  0
  1 12  1  1
 13 18  1  0
 14  6  1  0
 15  7  1  0
 16 23  1  1
 17 10  1  0
 18 16  1  0
 19  1  1  0
 20 16  1  0
 21 11  1  0
 22 24  1  0
  2 23  1  6
 24 20  1  0
 25 30  1  0
 26 31  1  0
 14 27  1  1
 28 15  1  0
 29  3  2  0
 30 19  1  0
 31 28  1  0
  4 32  1  0
  6 33  1  6
  8 34  1  6
 15 35  1  0
 13 36  1  0
 22 37  1  1
  4 38  1  6
 39 10  1  0
  5 40  1  6
  9 41  1  1
 13 42  1  6
 15 43  1  6
 17 44  1  1
 21 45  1  6
 24 46  1  6
 47 27  1  0
 48 27  1  0
 30 49  1  1
 31 50  1  6
 51 36  1  0
 52 45  1  0
 14 25  1  0
  4  8  1  0
 13 22  1  0
M  END
>  <ID>  (767) 


>  <MOLENAME>  (767) 
AZITHROMYCIN

>  <therap>  (767) 
antibacterial

>  <ref>  (767) 
J Antimicrob Chemother 31 Suppl E:1 (1993); Drugs 56:273 (1998); Lancet 354:891 (1999)

>  <cas#>  (767) 
83905-01-5, 117772-70-0 [dihydrate]

>  <source>  (767) 
semisynthetic

>  <status>  (767) 
USP, INN, BAN

>  <tradename>  (767) 
ZITHROMAX

>  <SMILES>  (767) 
CC[C@H]1OC(=O)[C@H](C)[C@@H](O[C@H]2C[C@@](C)(OC)[C@@H](O)[C@H](C)O2)[C@H](C)[C@@H](O[C@@H]2O[C@H](C)C[C@H](N(C)C)[C@H]2O)[C@](C)(O)C[C@@H](C)CN(C)[C@H](C)[C@@H](O)[C@]1(C)O

>  <standardized_failed>  (767) 
False

$$$$

     RDKit          2D

 11 11  0  0  0  0  0  0  0  0999 V2000
    3.7625   -4.0000    0.0000 C   0  0  0  0  0  0  0  0  0  0  0  0
    3.0500   -4.4125    0.0000 C   0  0  0  0  0  0  0  0  0  0  0  0
    3.7625   -3.1750    0.0000 C   0  0  0  0  0  0  0  0  0  0  0  0
    3.7625   -1.5167    0.0000 C   0  0  0  0  0  0  0  0  0  0  0  0
    4.4792   -2.7625    0.0000 C   0  0  0  0  0  0  0  0  0  0  0  0
    3.0500   -2.7625    0.0000 C   0  0  0  0  0  0  0  0  0  0  0  0
    4.4792   -1.9292    0.0000 C   0  0  0  0  0  0  0  0  0  0  0  0
    3.0500   -1.9375    0.0000 C   0  0  0  0  0  0  0  0  0  0  0  0
    3.7542   -0.6917    0.0000 O   0  0  0  0  0  0  0  0  0  0  0  0
    3.0500   -5.2375    0.0000 C   0  0  0  0  0  0  0  0  0  0  0  0
    4.4750   -0.2792    0.0000 C   0  0  0  0  0  0  0  0  0  0  0  0
  2  1  2  0
  3  1  1  0
  4  8  1  0
  5  3  2  0
  6  3  1  0
  7  5  1  0
  8  6  2  0
  9  4  1  0
 10  2  1  0
 11  9  1  0
  4  7  2  0
M  END
>  <ID>  (768) 


>  <MOLENAME>  (768) 
ANETHOLE

>  <therap>  (768) 
expectorant, gastric stimulant, insecticide

>  <ref>  (768) 
Therapie 22:309 (1967); Food Chem Toxicol 37:789 (1999)

>  <cas#>  (768) 
4180-23-8

>  <source>  (768) 
anise, fennel and other plant oils

>  <status>  (768) 
USAN, NF

>  <tradename>  (768) 
MONASIRUP

>  <SMILES>  (768) 
C/C=C/c1ccc(OC)cc1

>  <standardized_failed>  (768) 
False

$$$$

     RDKit          2D

 35 38  0  0  0  0  0  0  0  0999 V2000
    2.0375   -3.5167    0.0000 C   0  0  0  0  0  0  0  0  0  0  0  0
    4.5042   -3.5125    0.0000 N   0  0  0  0  0  0  0  0  0  0  0  0
   10.2625   -4.9250    0.0000 C   0  0  0  0  0  0  0  0  0  0  0  0
    9.4375   -4.9292    0.0000 C   0  0  0  0  0  0  0  0  0  0  0  0
    2.8625   -3.5167    0.0000 C   0  0  0  0  0  0  0  0  0  0  0  0
    7.7917   -4.9375    0.0000 C   0  0  0  0  0  0  0  0  0  0  0  0
    1.6250   -4.2292    0.0000 C   0  0  0  0  0  0  0  0  0  0  0  0
    1.6167   -2.8042    0.0000 C   0  0  0  0  0  0  0  0  0  0  0  0
    9.0167   -4.2167    0.0000 C   0  0  0  0  0  0  0  0  0  0  0  0
    9.0292   -5.6417    0.0000 C   0  0  0  0  0  0  0  0  0  0  0  0
    8.1917   -4.2250    0.0000 C   0  0  0  0  0  0  0  0  0  0  0  0
    8.2042   -5.6500    0.0000 C   0  0  0  0  0  0  0  0  0  0  0  0
    3.2667   -2.8042    0.0000 C   0  0  0  0  0  0  0  0  0  0  0  0
    3.2667   -4.2250    0.0000 C   0  0  0  0  0  0  0  0  0  0  0  0
    4.0917   -4.2250    0.0000 C   0  0  0  0  0  0  0  0  0  0  0  0
    4.0917   -2.8000    0.0000 C   0  0  0  0  0  0  0  0  0  0  0  0
    1.2125   -3.5167    0.0000 O   0  0  0  0  0  0  0  0  0  0  0  0
    6.9750   -4.9375    0.0000 C   0  0  0  0  0  0  0  0  0  0  0  0
    5.3292   -3.5125    0.0000 C   0  0  0  0  0  0  0  0  0  0  0  0
    6.5625   -5.6500    0.0000 O   0  0  0  0  0  0  0  0  0  0  0  0
    5.7417   -4.2250    0.0000 C   0  0  0  0  0  0  0  0  0  0  0  0
   10.6667   -4.2042    0.0000 C   0  0  0  0  0  0  0  0  0  0  0  0
   11.0875   -4.9250    0.0000 C   0  0  0  0  0  0  0  0  0  0  0  0
   10.6792   -5.6375    0.0000 C   0  0  0  0  0  0  0  0  0  0  0  0
    6.5625   -4.2250    0.0000 C   0  0  0  0  0  0  0  0  0  0  0  0
    2.0417   -4.9417    0.0000 C   0  0  0  0  0  0  0  0  0  0  0  0
    2.0292   -2.0917    0.0000 C   0  0  0  0  0  0  0  0  0  0  0  0
    0.8000   -2.8125    0.0000 C   0  0  0  0  0  0  0  0  0  0  0  0
    0.8042   -4.2292    0.0000 C   0  0  0  0  0  0  0  0  0  0  0  0
    1.6167   -1.3792    0.0000 C   0  0  0  0  0  0  0  0  0  0  0  0
    0.3792   -2.1042    0.0000 C   0  0  0  0  0  0  0  0  0  0  0  0
    0.3917   -4.9500    0.0000 C   0  0  0  0  0  0  0  0  0  0  0  0
    1.6375   -5.6542    0.0000 C   0  0  0  0  0  0  0  0  0  0  0  0
    0.8042   -5.6625    0.0000 C   0  0  0  0  0  0  0  0  0  0  0  0
    0.7917   -1.3792    0.0000 C   0  0  0  0  0  0  0  0  0  0  0  0
  2 15  1  0
  3  4  1  0
  4 10  2  0
  5  1  1  0
  6 18  1  0
  7  1  1  0
  8  1  1  0
  9 11  2  0
 10 12  1  0
 11  6  1  0
 12  6  2  0
 13  5  1  0
 14  5  1  0
 15 14  1  0
 16 13  1  0
 17  1  1  0
 18 25  1  0
 19  2  1  0
 20 18  1  0
 21 19  1  0
 22  3  1  0
 23  3  1  0
 24  3  1  0
 25 21  1  0
 26  7  2  0
 27  8  2  0
 28  8  1  0
 29  7  1  0
 30 27  1  0
 31 28  2  0
 32 29  2  0
 33 26  1  0
 34 32  1  0
 35 31  1  0
 16  2  1  0
 35 30  2  0
 33 34  2  0
  4  9  1  0
M  END
>  <ID>  (769) 


>  <MOLENAME>  (769) 
TERFENADINE

>  <therap>  (769) 
H1 antihistamine, nonsedating

>  <ref>  (769) 
Arzneim Forsch 32:1153, 1157 (1982); Clin Rev Allergy 11:5 (1993)

>  <cas#>  (769) 
50679-08-8

>  <source>  (769) 
synthetic; RMI-9918

>  <status>  (769) 
USP XXIII, INN, BAN, JAN

>  <tradename>  (769) 
SELDANE

>  <SMILES>  (769) 
CC(C)(C)c1ccc(C(O)CCCN2CCC(C(O)(c3ccccc3)c3ccccc3)CC2)cc1

>  <standardized_failed>  (769) 
False

$$$$

     RDKit          2D

 26 27  0  0  0  0  0  0  0  0999 V2000
    5.0667   -0.5917    0.0000 N   0  0  0  0  0  0  0  0  0  0  0  0
    8.8667   -0.4917    0.0000 S   0  0  0  0  0  0  0  0  0  0  0  0
    3.7167   -0.1417    0.0000 C   0  0  0  0  0  0  0  0  0  0  0  0
    5.8792   -0.4292    0.0000 C   0  0  0  0  0  0  0  0  0  0  0  0
    3.4542   -0.9250    0.0000 C   0  0  0  0  0  0  0  0  0  0  0  0
    6.4250   -1.0417    0.0000 C   0  0  0  0  0  0  0  0  0  0  0  0
    4.5167    0.0250    0.0000 C   0  0  0  0  0  0  0  0  0  0  0  0
    6.0917    0.3708    0.0000 C   0  0  0  0  0  0  0  0  0  0  0  0
    2.6375   -0.9292    0.0000 S   0  0  0  0  0  0  0  0  0  0  0  0
    4.8042   -1.3750    0.0000 C   0  0  0  0  0  0  0  0  0  0  0  0
    4.0000   -1.5417    0.0000 C   0  0  0  0  0  0  0  0  0  0  0  0
    2.3792   -0.1417    0.0000 C   0  0  0  0  0  0  0  0  0  0  0  0
    3.0500    0.3458    0.0000 C   0  0  0  0  0  0  0  0  0  0  0  0
    9.5417   -0.4917    0.0000 O   0  0  0  0  0  0  0  0  0  0  0  0
    8.8667   -1.1625    0.0000 O   0  0  0  0  0  0  0  0  0  0  0  0
    6.1542   -1.8250    0.0000 C   0  0  0  0  0  0  0  0  0  0  0  0
    5.5042    0.9583    0.0000 O   0  0  0  0  0  0  0  0  0  0  0  0
    8.1917   -0.4875    0.0000 O   0  0  0  0  0  0  0  0  0  0  0  0
    8.8667    0.1750    0.0000 O   0  0  0  0  0  0  0  0  0  0  0  0
    6.8875    0.5958    0.0000 O   0  0  0  0  0  0  0  0  0  0  0  0
    5.3542   -2.0375    0.0000 Cl  0  0  0  0  0  0  0  0  0  0  0  0
    7.2292   -0.8792    0.0000 C   0  0  0  0  0  0  0  0  0  0  0  0
    6.7042   -2.4417    0.0000 C   0  0  0  0  0  0  0  0  0  0  0  0
    7.4667    0.0083    0.0000 C   0  0  0  0  0  0  0  0  0  0  0  0
    7.7750   -1.4917    0.0000 C   0  0  0  0  0  0  0  0  0  0  0  0
    7.5167   -2.2792    0.0000 C   0  0  0  0  0  0  0  0  0  0  0  0
  3  7  1  0
  4  1  1  6
  5  3  2  0
  6  4  1  0
  7  1  1  0
  4  8  1  0
  9  5  1  0
 10  1  1  0
 11 10  1  0
 12 13  2  0
 13  3  1  0
 14  2  2  0
 15  2  2  0
 16  6  2  0
 17  8  2  0
 18  2  1  0
 19  2  1  0
 20  8  1  0
 21 16  1  0
 22  6  1  0
 23 16  1  0
 24 20  1  0
 25 22  2  0
 26 25  1  0
 11  5  1  0
 12  9  1  0
 23 26  2  0
M  END
>  <ID>  (770) 


>  <MOLENAME>  (770) 
CLOPIDOGREL SULFATE

>  <therap>  (770) 
platelet aggregation inhibitor

>  <ref>  (770) 
Lancet 348:1329 (1996); Expert Opin Invest Drugs 4:425 (1995)

>  <cas#>  (770) 
113665-84-2

>  <source>  (770) 
synthetic; SR-25990C

>  <status>  (770) 
USP, INN, BAN

>  <tradename>  (770) 
PLAVIX

>  <SMILES>  (770) 
COC(=O)[C@H](c1c(Cl)cccc1)N1CCc2c(ccs2)C1

>  <standardized_failed>  (770) 
False

$$$$

     RDKit          2D

 27 30  0  0  0  0  0  0  0  0999 V2000
    2.2042   -3.5000    0.0000 C   0  0  0  0  0  0  0  0  0  0  0  0
    1.7042   -3.0125    0.0000 C   0  0  0  0  0  0  0  0  0  0  0  0
    3.0000   -3.3625    0.0000 C   0  0  0  0  0  0  0  0  0  0  0  0
    1.4625   -5.8542    0.0000 N   0  0  0  0  0  0  0  0  0  0  0  0
    1.2125   -6.6417    0.0000 C   0  0  0  0  0  0  0  0  0  0  0  0
    1.9542   -4.2875    0.0000 C   0  0  0  0  0  0  0  0  0  0  0  0
    1.7042   -2.1792    0.0000 C   0  0  0  0  0  0  0  0  0  0  0  0
    0.9875   -3.4250    0.0000 C   0  0  0  0  0  0  0  0  0  0  0  0
    3.4542   -4.0667    0.0000 N   0  0  0  0  0  0  0  0  0  0  0  0
    3.3875   -2.6042    0.0000 C   0  0  0  0  0  0  0  0  0  0  0  0
    2.2667   -5.6792    0.0000 C   0  0  0  0  0  0  0  0  0  0  0  0
    0.9042   -5.2500    0.0000 C   0  0  0  0  0  0  0  0  0  0  0  0
    0.4042   -6.8167    0.0000 O   0  0  0  0  0  0  0  0  0  0  0  0
    0.9875   -1.7667    0.0000 C   0  0  0  0  0  0  0  0  0  0  0  0
    1.1500   -4.4667    0.0000 C   0  0  0  0  0  0  0  0  0  0  0  0
    2.5167   -4.8917    0.0000 C   0  0  0  0  0  0  0  0  0  0  0  0
    2.2167   -1.6792    0.0000 C   0  0  0  0  0  0  0  0  0  0  0  0
    3.0167   -1.8292    0.0000 C   0  0  0  0  0  0  0  0  0  0  0  0
    0.2750   -2.1875    0.0000 C   0  0  0  0  0  0  0  0  0  0  0  0
    1.7667   -7.2542    0.0000 O   0  0  0  0  0  0  0  0  0  0  0  0
    0.2750   -3.0125    0.0000 C   0  0  0  0  0  0  0  0  0  0  0  0
   -0.4375   -1.7750    0.0000 Cl  0  0  0  0  0  0  0  0  0  0  0  0
    4.3000   -4.0250    0.0000 C   0  0  0  0  0  0  0  0  0  0  0  0
    4.2250   -2.5667    0.0000 C   0  0  0  0  0  0  0  0  0  0  0  0
    1.5167   -8.0417    0.0000 C   0  0  0  0  0  0  0  0  0  0  0  0
    4.6792   -3.2667    0.0000 C   0  0  0  0  0  0  0  0  0  0  0  0
    2.0667   -8.6500    0.0000 C   0  0  0  0  0  0  0  0  0  0  0  0
  2  1  1  0
  3  1  1  0
  4 11  1  0
  5  4  1  0
  6  1  2  0
  7  2  1  0
  8  2  2  0
  9  3  2  0
 10  3  1  0
 11 16  1  0
 12 15  1  0
 13  5  2  0
 14  7  2  0
 15  6  1  0
 16  6  1  0
 17  7  1  0
 18 10  1  0
 19 21  2  0
 20  5  1  0
 21  8  1  0
 22 19  1  0
 23  9  1  0
 24 10  2  0
 25 20  1  0
 26 24  1  0
 27 25  1  0
 12  4  1  0
 18 17  1  0
 23 26  2  0
 14 19  1  0
M  END
>  <ID>  (771) 


>  <MOLENAME>  (771) 
LORATADINE

>  <therap>  (771) 
H1 antihistamine

>  <ref>  (771) 
Allergy (1987), 42(1), 57-63; Agents Actions (1984), 14(5-6), 590-7; Ann. Allergy (1987), 58(6), 407-11

>  <cas#>  (771) 
79794-75-5

>  <source>  (771) 
synthetic

>  <status>  (771) 
USP, INN, BAN

>  <tradename>  (771) 
ALAVERT

>  <SMILES>  (771) 
CCOC(=O)N1CCC(=C2c3ccc(Cl)cc3CCc3cccnc23)CC1

>  <standardized_failed>  (771) 
False

$$$$

     RDKit          2D

 55 61  0  0  0  0  0  0  0  0999 V2000
    6.4917   -5.0792    0.0000 C   0  0  0  0  0  0  0  0  0  0  0  0
    5.6750   -5.2167    0.0000 C   0  0  0  0  0  0  0  0  0  0  0  0
    5.3792   -5.9792    0.0000 C   0  0  0  0  0  0  0  0  0  0  0  0
    5.9042   -6.6167    0.0000 C   0  0  0  0  0  0  0  0  0  0  0  0
    6.9375   -4.3792    0.0000 C   0  0  0  0  0  0  0  0  0  0  0  0
    7.0167   -5.7167    0.0000 C   0  0  0  0  0  0  0  0  0  0  0  0
    7.9042   -1.3917    0.0000 C   0  0  0  0  0  0  0  0  0  0  0  0
    6.7167   -6.4792    0.0000 C   0  0  0  0  0  0  0  0  0  0  0  0
    4.5667   -5.9417    0.0000 O   0  0  0  0  0  0  0  0  0  0  0  0
    5.0292   -4.7042    0.0000 C   0  0  0  0  0  0  0  0  0  0  0  0
    8.6167   -1.8042    0.0000 O   0  0  0  0  0  0  0  0  0  0  0  0
    2.1667   -1.3792    0.0000 C   0  0  0  0  0  0  0  0  0  0  0  0
    7.1917   -3.4542    0.0000 O   0  0  0  0  0  0  0  0  0  0  0  0
    2.1625   -2.2042    0.0000 O   0  0  0  0  0  0  0  0  0  0  0  0
    1.4542   -0.9667    0.0000 C   0  0  0  0  0  0  0  0  0  0  0  0
    0.7292   -2.2042    0.0000 C   0  0  0  0  0  0  0  0  0  0  0  0
    3.6042   -1.3917    0.0000 C   0  0  0  0  0  0  0  0  0  0  0  0
    7.9042   -2.2167    0.0000 C   0  0  0  0  0  0  0  0  0  0  0  0
    7.1917   -0.9792    0.0000 O   0  0  0  0  0  0  0  0  0  0  0  0
    9.3292   -1.3917    0.0000 C   0  0  0  0  0  0  0  0  0  0  0  0
    0.7375   -1.3792    0.0000 C   0  0  0  0  0  0  0  0  0  0  0  0
    7.1917   -2.6292    0.0000 C   0  0  0  0  0  0  0  0  0  0  0  0
    1.4500   -2.6167    0.0000 C   0  0  0  0  0  0  0  0  0  0  0  0
    4.3250   -0.9792    0.0000 C   0  0  0  0  0  0  0  0  0  0  0  0
    2.8875   -0.9667    0.0000 O   0  0  0  0  0  0  0  0  0  0  0  0
    5.0417   -1.3917    0.0000 C   0  0  0  0  0  0  0  0  0  0  0  0
    5.6125   -7.3917    0.0000 N   0  0  0  0  0  0  0  0  0  0  0  0
    4.3500   -5.1542    0.0000 C   0  0  0  0  0  0  0  0  0  0  0  0
    5.0292   -3.8667    0.0000 C   0  0  0  0  0  0  0  0  0  0  0  0
    7.5750   -4.6875    0.0000 O   0  0  0  0  0  0  0  0  0  0  0  0
    4.3167   -3.4667    0.0000 C   0  0  0  0  0  0  0  0  0  0  0  0
    6.4750   -2.2167    0.0000 C   0  0  0  0  0  0  0  0  0  0  0  0
    6.4750   -1.3917    0.0000 C   0  0  0  0  0  0  0  0  0  0  0  0
    3.6042   -2.2167    0.0000 C   0  0  0  0  0  0  0  0  0  0  0  0
    9.3292   -0.5542    0.0000 C   0  0  0  0  0  0  0  0  0  0  0  0
    4.3167   -2.6292    0.0000 C   0  0  0  0  0  0  0  0  0  0  0  0
    5.6792   -4.3792    0.0000 O   0  0  0  0  0  0  0  0  0  0  0  0
    7.9042   -0.5542    0.0000 C   0  0  0  0  0  0  0  0  0  0  0  0
   10.0542   -1.8042    0.0000 C   0  0  0  0  0  0  0  0  0  0  0  0
    8.6167   -0.1417    0.0000 C   0  0  0  0  0  0  0  0  0  0  0  0
    5.7542   -0.9792    0.0000 C   0  0  0  0  0  0  0  0  0  0  0  0
    0.0042   -2.6167    0.0000 O   0  0  0  0  0  0  0  0  0  0  0  0
    0.0167   -0.9667    0.0000 O   0  0  0  0  0  0  0  0  0  0  0  0
    4.8000   -7.5292    0.0000 O   0  0  0  0  0  0  0  0  0  0  0  0
    7.2417   -7.1292    0.0000 C   0  0  0  0  0  0  0  0  0  0  0  0
    4.3250   -0.1542    0.0000 C   0  0  0  0  0  0  0  0  0  0  0  0
    1.4500   -3.4417    0.0000 C   0  0  0  0  0  0  0  0  0  0  0  0
    2.8875   -2.6417    0.0000 C   0  0  0  0  0  0  0  0  0  0  0  0
   10.0542   -0.1417    0.0000 C   0  0  0  0  0  0  0  0  0  0  0  0
   10.0500   -2.6417    0.0000 C   0  0  0  0  0  0  0  0  0  0  0  0
   10.7667   -1.3792    0.0000 C   0  0  0  0  0  0  0  0  0  0  0  0
    0.0292   -0.0417    0.0000 C   0  0  0  0  0  0  0  0  0  0  0  0
   11.5000   -1.8042    0.0000 C   0  0  0  0  0  0  0  0  0  0  0  0
   10.7667   -3.0542    0.0000 C   0  0  0  0  0  0  0  0  0  0  0  0
   11.5000   -2.6417    0.0000 C   0  0  0  0  0  0  0  0  0  0  0  0
  2  1  1  0
  3  2  1  0
  4  8  1  0
  1  5  1  0
  1  6  1  6
  7 18  1  1
  8  6  2  0
  3  9  1  1
 10  2  1  0
  7 11  1  0
 25 12  1  0
 13  5  1  0
 14 12  1  0
 15 12  1  0
 16 21  1  0
 17 34  1  0
 22 18  1  1
 19 33  1  0
 20 11  1  0
 21 15  1  0
 22 13  1  0
 23 14  1  0
 24 26  2  0
 17 25  1  6
 26 41  1  0
 27  4  2  0
 28 10  1  0
 29 10  2  0
 30  5  2  0
 31 29  1  0
 32 22  1  0
 33 32  1  0
 34 36  1  0
 35 40  1  0
 36 31  2  0
  2 37  1  6
  7 38  1  0
 20 39  1  1
 40 38  1  0
 33 41  1  1
 42 16  1  0
 21 43  1  1
 44 27  1  0
 45  8  1  0
 46 24  1  0
 23 47  1  1
 34 48  1  6
 35 49  1  6
 50 39  1  0
 51 39  1  0
 52 43  1  0
 53 51  1  0
 54 50  1  0
 55 53  1  0
  3  4  1  0
  9 28  1  0
 19  7  1  0
 24 17  1  0
 35 20  1  0
 54 55  1  0
 16 23  1  0
M  END
>  <ID>  (772) 


>  <MOLENAME>  (772) 
SELAMECTIN

>  <therap>  (772) 
anthelmintic, antiparasitic, antimite

>  <ref>  (772) 
Vet Parasitol 91:223, 377 (2000); Can Vet J 43:767 (2002)

>  <cas#>  (772) 
165108-07-6

>  <source>  (772) 
semisynthetic; UK-124114

>  <status>  (772) 
USAN, INN

>  <tradename>  (772) 
REVOLUTION

>  <SMILES>  (772) 
CO[C@H]1CC(O[C@@H]2/C(C)=C/C[C@@H]3C[C@@H](C[C@]4(CC[C@H](C)[C@@H](C5CCCCC5)O4)O3)OC(=O)[C@@H]3C=C(C)/C(=N/O)[C@H]4OC/C(=C\C=C\[C@@H]2C)[C@@]34O)O[C@@H](C)C1O

>  <standardized_failed>  (772) 
False

$$$$

     RDKit          2D

 24 22  0  0  0  0  0  0  0  0999 V2000
    6.4792   -2.9667    0.0000 C   0  0  0  0  0  0  0  0  0  0  0  0
    7.8792   -3.2875    0.0000 N   0  0  0  0  0  0  0  0  0  0  0  0
    7.1917   -2.5542    0.0000 O   0  0  0  0  0  0  0  0  0  0  0  0
    6.4792   -3.7917    0.0000 O   0  0  0  0  0  0  0  0  0  0  0  0
    2.9167   -5.0167    0.0000 C   0  0  0  0  0  0  0  0  0  0  0  0
    2.9167   -4.1958    0.0000 C   0  0  0  0  0  0  0  0  0  0  0  0
   10.0167   -2.8750    0.0000 O   0  0  0  0  0  0  0  0  0  0  0  0
    8.5917   -2.8750    0.0000 C   0  0  0  0  0  0  0  0  0  0  0  0
    5.7667   -2.5542    0.0000 C   0  0  0  0  0  0  0  0  0  0  0  0
    2.2000   -5.4292    0.0000 C   0  0  0  0  0  0  0  0  0  0  0  0
    2.2042   -3.7917    0.0000 C   0  0  0  0  0  0  0  0  0  0  0  0
    9.3042   -3.2875    0.0000 C   0  0  0  0  0  0  0  0  0  0  0  0
    5.0542   -2.9667    0.0000 C   0  0  0  0  0  0  0  0  0  0  0  0
    2.2042   -2.9667    0.0000 C   0  0  0  0  0  0  0  0  0  0  0  0
    1.4875   -5.0167    0.0000 C   0  0  0  0  0  0  0  0  0  0  0  0
   -2.0750   -5.4167    0.0000 C   0  0  0  0  0  0  0  0  0  0  0  0
   -1.3625   -5.0042    0.0000 C   0  0  0  0  0  0  0  0  0  0  0  0
    3.6292   -2.9667    0.0000 C   0  0  0  0  0  0  0  0  0  0  0  0
    4.3417   -2.5542    0.0000 C   0  0  0  0  0  0  0  0  0  0  0  0
    2.9167   -2.5542    0.0000 C   0  0  0  0  0  0  0  0  0  0  0  0
    0.7750   -5.4250    0.0000 C   0  0  0  0  0  0  0  0  0  0  0  0
    0.0625   -5.0125    0.0000 C   0  0  0  0  0  0  0  0  0  0  0  0
   -0.6500   -5.4167    0.0000 C   0  0  0  0  0  0  0  0  0  0  0  0
   -2.0792   -6.2417    0.0000 C   0  0  0  0  0  0  0  0  0  0  0  0
  3  1  1  0
  4  1  2  0
  5  6  2  0
  6 11  1  0
  7 12  1  0
  8  2  1  0
  9  1  1  0
 10  5  1  0
 11 14  1  0
 12  8  1  0
 13  9  1  0
 14 20  1  0
 15 10  1  0
 16 17  1  0
 17 23  1  0
 18 19  1  0
 19 13  1  0
 20 18  1  0
 21 15  1  0
 22 21  1  0
 23 22  1  0
 24 16  1  0
M  CHG  2   2   1   3  -1
M  END
>  <ID>  (773) 


>  <MOLENAME>  (773) 
ETHANOLAMINE OLEATE

>  <therap>  (773) 
sclerosing agent

>  <ref>  (773) 
Hepato-Gastroenterology (2007), 54(73), 195-200; Respiration (1998), 65(4), 304-308; Scand. J. Gastroenterol. (1996), 31(11), 1059-1062

>  <cas#>  (773) 
2272-11-9

>  <source>  (773) 
synthetic

>  <status>  (773) 
USAN

>  <tradename>  (773) 
ETHAMOLIN

>  <SMILES>  (773) 
CCCCCCCC/C=C\CCCCCCCC(=O)O.NCCO

>  <standardized_failed>  (773) 
False

$$$$

     RDKit          2D

 29 31  0  0  0  0  0  0  0  0999 V2000
    5.3792   -3.0792    0.0000 C   0  0  0  0  0  0  0  0  0  0  0  0
    6.0875   -3.5000    0.0000 C   0  0  0  0  0  0  0  0  0  0  0  0
    4.6667   -3.4917    0.0000 C   0  0  0  0  0  0  0  0  0  0  0  0
    6.0917   -4.3167    0.0000 C   0  0  0  0  0  0  0  0  0  0  0  0
    4.6625   -4.3167    0.0000 C   0  0  0  0  0  0  0  0  0  0  0  0
    5.3875   -2.2542    0.0000 C   0  0  0  0  0  0  0  0  0  0  0  0
    5.3750   -4.7292    0.0000 C   0  0  0  0  0  0  0  0  0  0  0  0
    6.8042   -3.0917    0.0000 O   0  0  0  0  0  0  0  0  0  0  0  0
    6.8167   -2.2667    0.0000 C   0  0  0  0  0  0  0  0  0  0  0  0
    3.9542   -4.7250    0.0000 C   0  0  0  0  0  0  0  0  0  0  0  0
    6.1042   -1.8500    0.0000 C   0  0  0  0  0  0  0  0  0  0  0  0
    6.8042   -4.7292    0.0000 O   0  0  0  0  0  0  0  0  0  0  0  0
    3.9542   -3.0750    0.0000 C   0  0  0  0  0  0  0  0  0  0  0  0
    7.5167   -4.3167    0.0000 C   0  0  0  0  0  0  0  0  0  0  0  0
    4.6750   -1.8375    0.0000 O   0  0  0  0  0  0  0  0  0  0  0  0
    5.3750   -3.9042    0.0000 O   0  0  0  0  0  0  0  0  0  0  0  0
    7.6417   -2.2667    0.0000 C   0  0  0  0  0  0  0  0  0  0  0  0
    3.2417   -4.3167    0.0000 C   0  0  0  0  0  0  0  0  0  0  0  0
    7.5167   -3.4917    0.0000 O   0  0  0  0  0  0  0  0  0  0  0  0
    3.2417   -3.4917    0.0000 C   0  0  0  0  0  0  0  0  0  0  0  0
    6.0792   -2.6750    0.0000 C   0  0  0  0  0  0  0  0  0  0  0  0
    5.3667   -5.5542    0.0000 O   0  0  0  0  0  0  0  0  0  0  0  0
    4.6625   -2.6667    0.0000 C   0  0  0  0  0  0  0  0  0  0  0  0
    8.0542   -2.9792    0.0000 C   0  0  0  0  0  0  0  0  0  0  0  0
    3.9500   -2.2500    0.0000 O   0  0  0  0  0  0  0  0  0  0  0  0
    7.0292   -1.4667    0.0000 C   0  0  0  0  0  0  0  0  0  0  0  0
    4.5375   -5.3042    0.0000 C   0  0  0  0  0  0  0  0  0  0  0  0
    3.5375   -5.4375    0.0000 C   0  0  0  0  0  0  0  0  0  0  0  0
    8.2292   -4.7292    0.0000 C   0  0  0  0  0  0  0  0  0  0  0  0
  2  1  1  0
  3  1  1  0
  4  2  1  0
  5  3  1  0
  6  1  1  0
  7  5  1  0
  8  2  1  0
  9 11  1  0
 10  5  1  0
 11  6  1  0
  4 12  1  1
 13  3  1  0
 14 12  1  0
 15  6  2  0
  1 16  1  6
  9 17  1  0
 18 20  1  0
 19 14  2  0
 20 13  1  0
  2 21  1  1
  7 22  1  1
  3 23  1  1
 24 17  2  0
 13 25  1  6
  9 26  1  1
 27 10  1  0
 28 10  1  0
 29 14  1  0
  8  9  1  0
  4  7  1  0
 10 18  1  0
M  END
>  <ID>  (774) 


>  <MOLENAME>  (774) 
COLFORSIN

>  <therap>  (774) 
adenylate cyclase activator, antiglaucoma, hypotensive, vasodilator

>  <ref>  (774) 
J Biol Chem 258:2960 (1983); J Med Chem 26:436, 486 (1983); TIPS 10:442 (1989)

>  <cas#>  (774) 
66575-29-9

>  <source>  (774) 
Coleus forskohlii; HL-362; L-75-1362B

>  <status>  (774) 
USAN, INN

>  <tradename>  (774) 
nan

>  <SMILES>  (774) 
C=C[C@@]1(C)CC(=O)[C@@]2(O)[C@](C)(O1)[C@@H](OC(C)=O)[C@@H](O)C1C(C)(C)CC[C@H](O)[C@@]12C

>  <standardized_failed>  (774) 
False

$$$$

     RDKit          2D

 54 56  0  0  0  0  0  0  0  0999 V2000
    5.5708   -0.5542    0.0000 C   0  0  0  0  0  0  0  0  0  0  0  0
   10.6000   -1.4667    0.0000 C   0  0  0  0  0  0  0  0  0  0  0  0
    6.9333   -2.2750    0.0000 C   0  0  0  0  0  0  0  0  0  0  0  0
    3.1125   -3.8208    0.0000 C   0  0  0  0  0  0  0  0  0  0  0  0
    8.4792   -0.8208    0.0000 C   0  0  0  0  0  0  0  0  0  0  0  0
    4.5875   -2.2167    0.0000 C   0  0  0  0  0  0  0  0  0  0  0  0
    4.2833   -0.2167    0.0000 N   0  0  0  0  0  0  0  0  0  0  0  0
    9.1458   -1.3083    0.0000 N   0  0  0  0  0  0  0  0  0  0  0  0
    5.4125   -2.2208    0.0000 N   0  0  0  0  0  0  0  0  0  0  0  0
   10.4958   -2.2792    0.0000 N   0  0  0  0  0  0  0  0  0  0  0  0
    9.9667   -0.9500    0.0000 C   0  0  0  0  0  0  0  0  0  0  0  0
    4.7083   -0.8500    0.0000 C   0  0  0  0  0  0  0  0  0  0  0  0
    7.6625   -1.8917    0.0000 N   0  0  0  0  0  0  0  0  0  0  0  0
    6.2333   -1.8333    0.0000 C   0  0  0  0  0  0  0  0  0  0  0  0
   10.0042   -0.1292    0.0000 C   0  0  0  0  0  0  0  0  0  0  0  0
   11.1458   -2.7792    0.0000 C   0  0  0  0  0  0  0  0  0  0  0  0
    3.8375   -3.4292    0.0000 N   0  0  0  0  0  0  0  0  0  0  0  0
   10.8958   -3.5750    0.0000 C   0  0  0  0  0  0  0  0  0  0  0  0
    5.5250    0.2708    0.0000 C   0  0  0  0  0  0  0  0  0  0  0  0
    6.2708   -1.0042    0.0000 C   0  0  0  0  0  0  0  0  0  0  0  0
    7.6958   -1.0833    0.0000 C   0  0  0  0  0  0  0  0  0  0  0  0
   10.5542    0.3458    0.0000 C   0  0  0  0  0  0  0  0  0  0  0  0
    4.7292    0.4792    0.0000 C   0  0  0  0  0  0  0  0  0  0  0  0
    3.8625   -2.6042    0.0000 C   0  0  0  0  0  0  0  0  0  0  0  0
    2.4083   -3.3875    0.0000 O   0  0  0  0  0  0  0  0  0  0  0  0
    3.0875   -4.6458    0.0000 O   0  0  0  0  0  0  0  0  0  0  0  0
    6.9000   -3.1042    0.0000 O   0  0  0  0  0  0  0  0  0  0  0  0
   11.3417   -1.1333    0.0000 O   0  0  0  0  0  0  0  0  0  0  0  0
    4.4333   -1.4042    0.0000 O   0  0  0  0  0  0  0  0  0  0  0  0
    8.4958    0.0333    0.0000 O   0  0  0  0  0  0  0  0  0  0  0  0
   11.9667   -2.6042    0.0000 C   0  0  0  0  0  0  0  0  0  0  0  0
   11.4875   -4.0417    0.0000 O   0  0  0  0  0  0  0  0  0  0  0  0
   10.1792    1.2500    0.0000 O   0  0  0  0  0  0  0  0  0  0  0  0
    1.6833   -3.7792    0.0000 C   0  0  0  0  0  0  0  0  0  0  0  0
   10.1792   -3.9792    0.0000 N   0  0  0  0  0  0  0  0  0  0  0  0
    7.0167   -0.6083    0.0000 C   0  0  0  0  0  0  0  0  0  0  0  0
   11.3375    0.3458    0.0000 O   0  0  0  0  0  0  0  0  0  0  0  0
   12.5708   -3.1625    0.0000 C   0  0  0  0  0  0  0  0  0  0  0  0
    6.8667    0.7958    0.0000 S   0  0  0  0  0  0  0  0  0  0  0  0
    6.1083    0.8542    0.0000 C   0  0  0  0  0  0  0  0  0  0  0  0
    7.3750    0.1458    0.0000 C   0  0  0  0  0  0  0  0  0  0  0  0
    3.1583   -2.1667    0.0000 C   0  0  0  0  0  0  0  0  0  0  0  0
    4.5125    1.2750    0.0000 C   0  0  0  0  0  0  0  0  0  0  0  0
    0.9792   -3.3458    0.0000 C   0  0  0  0  0  0  0  0  0  0  0  0
    1.6583   -4.6042    0.0000 C   0  0  0  0  0  0  0  0  0  0  0  0
    0.9667   -4.1875    0.0000 C   0  0  0  0  0  0  0  0  0  0  0  0
    7.4000    1.5333    0.0000 C   0  0  0  0  0  0  0  0  0  0  0  0
   12.3917   -3.9667    0.0000 C   0  0  0  0  0  0  0  0  0  0  0  0
   13.3542   -2.9125    0.0000 C   0  0  0  0  0  0  0  0  0  0  0  0
    5.8958    1.6375    0.0000 C   0  0  0  0  0  0  0  0  0  0  0  0
    5.0917    1.8583    0.0000 C   0  0  0  0  0  0  0  0  0  0  0  0
   13.9625   -3.4667    0.0000 C   0  0  0  0  0  0  0  0  0  0  0  0
   13.0000   -4.5250    0.0000 C   0  0  0  0  0  0  0  0  0  0  0  0
   13.7875   -4.2750    0.0000 C   0  0  0  0  0  0  0  0  0  0  0  0
  2 11  1  0
  3 14  1  0
  4 17  1  0
  5 21  1  0
  6  9  1  0
  7 12  1  0
  8  5  1  0
  9 14  1  0
 10  2  1  0
 11  8  1  0
 12  1  2  0
 13  3  1  0
 14 20  1  1
 11 15  1  1
 16 10  1  0
 17 24  1  0
 18 16  1  0
 19  1  1  0
 20  1  1  0
 21 13  1  0
 22 15  1  0
 23 19  2  0
 24  6  1  0
 25  4  1  0
 26  4  2  0
 27  3  2  0
 28  2  2  0
 29  6  2  0
 30  5  2  0
 16 31  1  1
 32 18  2  0
 33 22  2  0
 34 25  1  0
 35 18  1  0
 21 36  1  1
 37 22  1  0
 38 31  1  0
 39 41  1  0
 40 19  1  0
 41 36  1  0
 24 42  1  1
 43 23  1  0
 44 34  1  0
 45 34  1  0
 46 34  1  0
 47 39  1  0
 48 38  2  0
 49 38  1  0
 50 40  2  0
 51 50  1  0
 52 49  2  0
 53 48  1  0
 54 52  1  0
  7 23  1  0
 51 43  2  0
 54 53  2  0
M  END
>  <ID>  (775) 


>  <MOLENAME>  (775) 
PENTAGASTRIN

>  <therap>  (775) 
gastric secretion indicator

>  <ref>  (775) 
J Clin Invest 57:1644 (1976); J Clin Endocrin Metab 78:114 (1994) ; Exp Physiol 91.:977 (2006)

>  <cas#>  (775) 
5534-95-2

>  <source>  (775) 
synthetic; ICI-50123

>  <status>  (775) 
USAN, INN, BAN, JAN

>  <tradename>  (775) 
PEPTAVLON

>  <SMILES>  (775) 
CSCC[C@H](NC(=O)[C@H](Cc1c[nH]c2c1cccc2)NC(=O)[C@H](C)NC(=O)OC(C)(C)C)C(=O)N[C@@H](CC(=O)O)C(=O)N[C@@H](Cc1ccccc1)C(N)=O

>  <standardized_failed>  (775) 
False

$$$$

     RDKit          2D

 36 41  0  0  0  0  0  0  0  0999 V2000
    6.1542   -2.4667    0.0000 C   0  0  0  0  0  0  0  0  0  0  0  0
    5.3750   -2.7125    0.0000 C   0  0  0  0  0  0  0  0  0  0  0  0
    3.9375   -3.5167    0.0000 C   0  0  0  0  0  0  0  0  0  0  0  0
    3.2250   -3.9292    0.0000 C   0  0  0  0  0  0  0  0  0  0  0  0
    5.3667   -3.5375    0.0000 C   0  0  0  0  0  0  0  0  0  0  0  0
    4.6417   -3.9417    0.0000 C   0  0  0  0  0  0  0  0  0  0  0  0
    6.6292   -3.1292    0.0000 C   0  0  0  0  0  0  0  0  0  0  0  0
    3.2167   -4.7542    0.0000 C   0  0  0  0  0  0  0  0  0  0  0  0
    6.6417   -1.8042    0.0000 O   0  0  0  0  0  0  0  0  0  0  0  0
    3.9417   -2.6917    0.0000 C   0  0  0  0  0  0  0  0  0  0  0  0
    4.6667   -2.2917    0.0000 C   0  0  0  0  0  0  0  0  0  0  0  0
    7.4250   -2.0667    0.0000 C   0  0  0  0  0  0  0  0  0  0  0  0
    7.4167   -2.8875    0.0000 O   0  0  0  0  0  0  0  0  0  0  0  0
    2.5042   -3.5167    0.0000 C   0  0  0  0  0  0  0  0  0  0  0  0
    6.1417   -3.8000    0.0000 C   0  0  0  0  0  0  0  0  0  0  0  0
    5.9417   -1.6667    0.0000 C   0  0  0  0  0  0  0  0  0  0  0  0
    2.5042   -5.1667    0.0000 C   0  0  0  0  0  0  0  0  0  0  0  0
    4.6500   -4.7625    0.0000 C   0  0  0  0  0  0  0  0  0  0  0  0
    1.8042   -3.9292    0.0000 C   0  0  0  0  0  0  0  0  0  0  0  0
    1.8042   -4.7542    0.0000 C   0  0  0  0  0  0  0  0  0  0  0  0
    3.9292   -5.1667    0.0000 C   0  0  0  0  0  0  0  0  0  0  0  0
    6.3417    0.4833    0.0000 C   0  0  0  0  0  0  0  0  0  0  0  0
    3.9292   -4.3417    0.0000 F   0  0  0  0  0  0  0  0  0  0  0  0
    6.3500   -0.9500    0.0000 C   0  0  0  0  0  0  0  0  0  0  0  0
    5.1125   -1.3042    0.0000 O   0  0  0  0  0  0  0  0  0  0  0  0
    5.9292   -0.2375    0.0000 O   0  0  0  0  0  0  0  0  0  0  0  0
    5.9250    1.1958    0.0000 O   0  0  0  0  0  0  0  0  0  0  0  0
    1.0875   -5.1667    0.0000 O   0  0  0  0  0  0  0  0  0  0  0  0
    5.3667   -1.8875    0.0000 C   0  0  0  0  0  0  0  0  0  0  0  0
    3.2250   -2.2792    0.0000 O   0  0  0  0  0  0  0  0  0  0  0  0
    3.2167   -3.1042    0.0000 C   0  0  0  0  0  0  0  0  0  0  0  0
    8.2167   -2.2792    0.0000 C   0  0  0  0  0  0  0  0  0  0  0  0
    7.3792   -1.2417    0.0000 C   0  0  0  0  0  0  0  0  0  0  0  0
    7.1667    0.4875    0.0000 C   0  0  0  0  0  0  0  0  0  0  0  0
    8.6667   -1.5875    0.0000 C   0  0  0  0  0  0  0  0  0  0  0  0
    8.1500   -0.9417    0.0000 C   0  0  0  0  0  0  0  0  0  0  0  0
  2  1  1  0
  3 10  1  0
  4  3  1  0
  5  2  1  0
  6  5  1  0
  7  1  1  0
  8  4  1  0
  1  9  1  0
 10 11  1  0
 11  2  1  0
 12  9  1  0
  7 13  1  0
 14  4  1  0
  7 15  1  6
  1 16  1  1
 17  8  2  0
 18  6  1  0
 19 14  2  0
 20 19  1  0
 21 18  1  0
 22 26  1  0
  3 23  1  6
 24 16  1  0
 25 16  2  0
 26 24  1  0
 27 22  2  0
 28 20  2  0
  2 29  1  1
 10 30  1  1
  4 31  1  1
 32 12  1  0
 33 12  1  0
 34 22  1  0
 35 32  1  0
 36 33  1  0
  5 15  1  0
 13 12  1  0
  6  3  1  0
 35 36  1  0
  8 21  1  0
 17 20  1  0
M  END
>  <ID>  (776) 


>  <MOLENAME>  (776) 
AMCINONIDE

>  <therap>  (776) 
glucocorticoid, antiinflammatory

>  <ref>  (776) 
Cutaneous Med Practitioner 34:190 (1984); Contact Dermatitis 12:213 91985)

>  <cas#>  (776) 
51022-69-6

>  <source>  (776) 
synthetic

>  <status>  (776) 
USP, INN, BAN, JAN

>  <tradename>  (776) 
CYCLOCORT

>  <SMILES>  (776) 
CC(=O)OCC(=O)[C@@]12OC3(CCCC3)O[C@@H]1CC1C3CCC4=CC(=O)C=C[C@]4(C)[C@@]3(F)[C@@H](O)C[C@@]12C

>  <standardized_failed>  (776) 
False

$$$$

     RDKit          2D

 22 22  0  0  0  0  0  0  0  0999 V2000
    3.3042   -2.4667    0.0000 C   0  0  0  0  0  0  0  0  0  0  0  0
    2.8917   -1.7500    0.0000 N   0  0  0  0  0  0  0  0  0  0  0  0
    2.0667   -1.7500    0.0000 C   0  0  0  0  0  0  0  0  0  0  0  0
    4.5417   -1.7500    0.0000 N   0  0  0  0  0  0  0  0  0  0  0  0
    4.1292   -2.4667    0.0000 C   0  0  0  0  0  0  0  0  0  0  0  0
    2.8917   -3.1792    0.0000 O   0  0  0  0  0  0  0  0  0  0  0  0
    1.6542   -1.0375    0.0000 C   0  0  0  0  0  0  0  0  0  0  0  0
    1.6542   -2.4625    0.0000 C   0  0  0  0  0  0  0  0  0  0  0  0
    6.3292   -1.0292    0.0000 Cl  0  0  0  0  0  0  0  0  0  0  0  0
    4.1292   -1.0375    0.0000 C   0  0  0  0  0  0  0  0  0  0  0  0
    5.3667   -1.7542    0.0000 C   0  0  0  0  0  0  0  0  0  0  0  0
    0.4250   -1.7542    0.0000 C   0  0  0  0  0  0  0  0  0  0  0  0
    4.5417   -3.1792    0.0000 C   0  0  0  0  0  0  0  0  0  0  0  0
    0.8292   -1.0417    0.0000 C   0  0  0  0  0  0  0  0  0  0  0  0
    0.8292   -2.4625    0.0000 C   0  0  0  0  0  0  0  0  0  0  0  0
    2.0667   -0.3250    0.0000 C   0  0  0  0  0  0  0  0  0  0  0  0
    2.0667   -3.1792    0.0000 C   0  0  0  0  0  0  0  0  0  0  0  0
    4.5375   -0.3250    0.0000 C   0  0  0  0  0  0  0  0  0  0  0  0
    4.1250    0.3875    0.0000 C   0  0  0  0  0  0  0  0  0  0  0  0
    5.7792   -2.4667    0.0000 C   0  0  0  0  0  0  0  0  0  0  0  0
    5.3625   -3.1792    0.0000 C   0  0  0  0  0  0  0  0  0  0  0  0
    4.5292    1.1000    0.0000 C   0  0  0  0  0  0  0  0  0  0  0  0
  2  1  1  0
  3  2  1  0
  4  5  1  0
  5  1  1  0
  6  1  2  0
  7  3  2  0
  8  3  1  0
 10  4  1  0
 11  4  1  0
 12 15  1  0
 13  5  1  0
 14  7  1  0
 15  8  2  0
 16  7  1  0
 17  8  1  0
 18 10  1  0
 19 18  1  0
 20 21  1  0
 21 13  1  0
 22 19  1  0
 11 20  1  0
 14 12  2  0
M  END
>  <ID>  (777) 


>  <MOLENAME>  (777) 
BUPIVACAINE HYDROCHLORIDE

>  <therap>  (777) 
anesthetic (local)

>  <ref>  (777) 
Anal Profiles Drug Subs 19:59 (1990); Drugs 56:355 (1998)

>  <cas#>  (777) 
14252-80-3, 2180-92-9 [bupivacaine], 18010-40-7 [anhydrous]

>  <source>  (777) 
synthetic

>  <status>  (777) 
USP, INN, BAN, JAN

>  <tradename>  (777) 
MARCAINE

>  <SMILES>  (777) 
CCCCN1CCCCC1C(=O)Nc1c(C)cccc1C

>  <standardized_failed>  (777) 
False

$$$$

     RDKit          2D

 17 18  0  0  0  0  0  0  0  0999 V2000
    2.7625   -2.5542    0.0000 C   0  0  0  0  0  0  0  0  0  0  0  0
    2.7625   -3.3792    0.0000 C   0  0  0  0  0  0  0  0  0  0  0  0
    3.4667   -2.1417    0.0000 C   0  0  0  0  0  0  0  0  0  0  0  0
    2.0417   -3.8000    0.0000 C   0  0  0  0  0  0  0  0  0  0  0  0
    3.4792   -3.7917    0.0000 C   0  0  0  0  0  0  0  0  0  0  0  0
    2.0417   -2.1417    0.0000 C   0  0  0  0  0  0  0  0  0  0  0  0
    6.3125   -1.2917    0.0000 O   0  0  0  0  0  0  0  0  0  0  0  0
    6.3167   -2.1167    0.0000 C   0  0  0  0  0  0  0  0  0  0  0  0
    4.1875   -2.5500    0.0000 C   0  0  0  0  0  0  0  0  0  0  0  0
    1.3292   -3.3875    0.0000 C   0  0  0  0  0  0  0  0  0  0  0  0
    4.1917   -3.3792    0.0000 C   0  0  0  0  0  0  0  0  0  0  0  0
    1.3292   -2.5625    0.0000 C   0  0  0  0  0  0  0  0  0  0  0  0
    5.6125   -2.5375    0.0000 C   0  0  0  0  0  0  0  0  0  0  0  0
    4.8917   -2.1292    0.0000 C   0  0  0  0  0  0  0  0  0  0  0  0
    0.6167   -3.8000    0.0000 O   0  0  0  0  0  0  0  0  0  0  0  0
    7.0375   -2.5250    0.0000 C   0  0  0  0  0  0  0  0  0  0  0  0
   -0.0958   -3.3875    0.0000 C   0  0  0  0  0  0  0  0  0  0  0  0
  2  1  1  0
  3  1  2  0
  4  2  1  0
  5  2  2  0
  6  1  1  0
  7  8  2  0
  8 13  1  0
  9  3  1  0
 10 12  1  0
 11  9  2  0
 12  6  2  0
 13 14  1  0
 14  9  1  0
 15 10  1  0
 16  8  1  0
 17 15  1  0
  4 10  2  0
  5 11  1  0
M  END
>  <ID>  (778) 


>  <MOLENAME>  (778) 
NABUMETONE

>  <therap>  (778) 
antiinflammatory

>  <ref>  (778) 
Drugs (2004), 64(20), 2315-2343; J. Pharm. Pharmacol. (1982), 34(9), 562-9; J. Med. Chem. (1978), 21(12), 1260-4

>  <cas#>  (778) 
42924-53-8

>  <source>  (778) 
synthetic

>  <status>  (778) 
USP, INN, BAN, JAN

>  <tradename>  (778) 
RELAFEN

>  <SMILES>  (778) 
COc1cc2ccc(CCC(C)=O)cc2cc1

>  <standardized_failed>  (778) 
False

$$$$

     RDKit          2D

 62 68  0  0  0  0  0  0  0  0999 V2000
    9.6167   -3.4250    0.0000 C   0  0  0  0  0  0  0  0  0  0  0  0
    9.7625   -4.7625    0.0000 C   0  0  0  0  0  0  0  0  0  0  0  0
    7.9167   -4.1125    0.0000 C   0  0  0  0  0  0  0  0  0  0  0  0
    9.3042   -4.1417    0.0000 C   0  0  0  0  0  0  0  0  0  0  0  0
    7.9167   -2.6792    0.0000 C   0  0  0  0  0  0  0  0  0  0  0  0
    8.3250   -3.4000    0.0000 C   0  0  0  0  0  0  0  0  0  0  0  0
    9.3417   -2.6792    0.0000 C   0  0  0  0  0  0  0  0  0  0  0  0
    8.6292   -4.5250    0.0000 C   0  0  0  0  0  0  0  0  0  0  0  0
    8.6292   -2.2667    0.0000 C   0  0  0  0  0  0  0  0  0  0  0  0
    7.0917   -2.6792    0.0000 C   0  0  0  0  0  0  0  0  0  0  0  0
    7.0917   -4.1125    0.0000 C   0  0  0  0  0  0  0  0  0  0  0  0
    6.6750   -3.4000    0.0000 C   0  0  0  0  0  0  0  0  0  0  0  0
    5.4417   -2.6875    0.0000 C   0  0  0  0  0  0  0  0  0  0  0  0
   10.3875   -3.3292    0.0000 C   0  0  0  0  0  0  0  0  0  0  0  0
    4.6167   -2.6875    0.0000 C   0  0  0  0  0  0  0  0  0  0  0  0
   10.5417   -4.6792    0.0000 C   0  0  0  0  0  0  0  0  0  0  0  0
    3.3917   -1.9750    0.0000 N   0  0  0  0  0  0  0  0  0  0  0  0
    8.0417   -5.1042    0.0000 O   0  0  0  0  0  0  0  0  0  0  0  0
    4.2125   -1.9750    0.0000 C   0  0  0  0  0  0  0  0  0  0  0  0
    2.9792   -1.2625    0.0000 C   0  0  0  0  0  0  0  0  0  0  0  0
    7.2167   -5.2042    0.0000 C   0  0  0  0  0  0  0  0  0  0  0  0
    5.8500   -3.4000    0.0000 O   0  0  0  0  0  0  0  0  0  0  0  0
    9.8417   -5.5375    0.0000 C   0  0  0  0  0  0  0  0  0  0  0  0
   10.8542   -3.9625    0.0000 C   0  0  0  0  0  0  0  0  0  0  0  0
    9.0875   -5.1417    0.0000 O   0  0  0  0  0  0  0  0  0  0  0  0
   10.6167   -5.4542    0.0000 O   0  0  0  0  0  0  0  0  0  0  0  0
    8.6250   -1.4417    0.0000 O   0  0  0  0  0  0  0  0  0  0  0  0
    9.0792   -5.9167    0.0000 C   0  0  0  0  0  0  0  0  0  0  0  0
    9.3375   -1.0250    0.0000 C   0  0  0  0  0  0  0  0  0  0  0  0
    9.7500   -1.9625    0.0000 O   0  0  0  0  0  0  0  0  0  0  0  0
    5.8542   -1.9667    0.0000 O   0  0  0  0  0  0  0  0  0  0  0  0
    3.3917   -0.5417    0.0000 O   0  0  0  0  0  0  0  0  0  0  0  0
    6.7792   -4.6125    0.0000 O   0  0  0  0  0  0  0  0  0  0  0  0
    7.5000   -3.3917    0.0000 O   0  0  0  0  0  0  0  0  0  0  0  0
    2.1542   -1.2542    0.0000 C   0  0  0  0  0  0  0  0  0  0  0  0
    6.8042   -5.9250    0.0000 C   0  0  0  0  0  0  0  0  0  0  0  0
    4.6167   -1.2542    0.0000 C   0  0  0  0  0  0  0  0  0  0  0  0
    9.7417   -6.3167    0.0000 O   0  0  0  0  0  0  0  0  0  0  0  0
    9.3292   -0.2000    0.0000 O   0  0  0  0  0  0  0  0  0  0  0  0
   10.0167   -2.7042    0.0000 C   0  0  0  0  0  0  0  0  0  0  0  0
    4.2042   -3.4000    0.0000 O   0  0  0  0  0  0  0  0  0  0  0  0
   10.9375   -2.7792    0.0000 O   0  0  0  0  0  0  0  0  0  0  0  0
    8.8042   -3.8625    0.0000 C   0  0  0  0  0  0  0  0  0  0  0  0
    8.8375   -2.8917    0.0000 C   0  0  0  0  0  0  0  0  0  0  0  0
    6.6792   -1.9667    0.0000 C   0  0  0  0  0  0  0  0  0  0  0  0
   10.0542   -1.4292    0.0000 C   0  0  0  0  0  0  0  0  0  0  0  0
    8.4000   -6.3042    0.0000 C   0  0  0  0  0  0  0  0  0  0  0  0
    1.7500   -0.5417    0.0000 C   0  0  0  0  0  0  0  0  0  0  0  0
    5.9792   -5.9250    0.0000 C   0  0  0  0  0  0  0  0  0  0  0  0
    7.2250   -6.6292    0.0000 C   0  0  0  0  0  0  0  0  0  0  0  0
    1.7417   -1.9667    0.0000 C   0  0  0  0  0  0  0  0  0  0  0  0
    5.4417   -1.2542    0.0000 C   0  0  0  0  0  0  0  0  0  0  0  0
    4.2042   -0.5500    0.0000 C   0  0  0  0  0  0  0  0  0  0  0  0
    0.9250   -1.9667    0.0000 C   0  0  0  0  0  0  0  0  0  0  0  0
    5.8542   -0.5375    0.0000 C   0  0  0  0  0  0  0  0  0  0  0  0
    5.5750   -6.6417    0.0000 C   0  0  0  0  0  0  0  0  0  0  0  0
    6.8167   -7.3417    0.0000 C   0  0  0  0  0  0  0  0  0  0  0  0
    4.6042    0.1708    0.0000 C   0  0  0  0  0  0  0  0  0  0  0  0
    0.9250   -0.5375    0.0000 C   0  0  0  0  0  0  0  0  0  0  0  0
    0.5042   -1.2500    0.0000 C   0  0  0  0  0  0  0  0  0  0  0  0
    5.4375    0.1750    0.0000 C   0  0  0  0  0  0  0  0  0  0  0  0
    5.9917   -7.3542    0.0000 C   0  0  0  0  0  0  0  0  0  0  0  0
  2  4  1  0
  3  8  1  0
  4  1  1  0
  5  9  1  0
  6  5  1  0
  7  1  1  0
  8  4  1  0
  9  7  1  0
 10  5  2  0
 11  3  1  0
 12 10  1  0
 13 22  1  0
 14  1  1  0
 15 13  1  0
 16 24  1  1
 19 17  1  1
  8 18  1  6
 19 15  1  0
 20 17  1  0
 21 18  1  0
 12 22  1  6
  2 23  1  0
 24 14  1  0
  2 25  1  6
 16 26  1  0
  9 27  1  1
 28 25  1  0
 29 27  1  0
 30  7  2  0
 31 13  2  0
 32 20  2  0
 33 21  2  0
  3 34  1  1
 35 20  1  0
 36 21  1  0
 19 37  1  0
 38 28  2  0
 39 29  2  0
  1 40  1  1
 15 41  1  6
 14 42  1  1
 43  6  1  0
 44  6  1  0
 45 10  1  0
 46 29  1  0
 47 28  1  0
 48 35  2  0
 49 36  2  0
 50 36  1  0
 51 35  1  0
 52 37  2  0
 53 37  1  0
 54 51  2  0
 55 52  1  0
 56 49  1  0
 57 50  2  0
 58 53  2  0
 59 48  1  0
 60 54  1  0
 61 58  1  0
 62 57  1  0
 16  2  1  0
 23 26  1  0
  3  6  1  0
 11 12  1  0
 56 62  2  0
 55 61  2  0
 59 60  2  0
M  END
>  <ID>  (779) 


>  <MOLENAME>  (779) 
PACLITAXEL

>  <therap>  (779) 
antineoplastic

>  <ref>  (779) 
J Am Chem Soc 93: 2325 (1971)

>  <cas#>  (779) 
33069-62-4

>  <source>  (779) 
Taxus breviofolia; BMS-181339-01

>  <status>  (779) 
USP, INN, BAN

>  <tradename>  (779) 
TAXOL

>  <SMILES>  (779) 
CC(=O)O[C@H]1C(=O)[C@@]2(C)C([C@H](OC(=O)c3ccccc3)[C@]3(O)C[C@H](OC(=O)[C@H](O)[C@@H](NC(=O)c4ccccc4)c4ccccc4)C(C)=C1C3(C)C)[C@]1(OC(C)=O)CO[C@@H]1C[C@@H]2O

>  <standardized_failed>  (779) 
False

$$$$

     RDKit          2D

 22 22  0  0  0  0  0  0  0  0999 V2000
    4.8292   -1.6250    0.0000 C   0  0  0  0  0  0  0  0  0  0  0  0
    4.0042   -1.6250    0.0000 C   0  0  0  0  0  0  0  0  0  0  0  0
    5.2375   -0.9042    0.0000 O   0  0  0  0  0  0  0  0  0  0  0  0
    3.5917   -2.3375    0.0000 C   0  0  0  0  0  0  0  0  0  0  0  0
    3.5917   -0.9125    0.0000 C   0  0  0  0  0  0  0  0  0  0  0  0
    2.3625   -1.6292    0.0000 C   0  0  0  0  0  0  0  0  0  0  0  0
    5.2375   -2.3375    0.0000 O   0  0  0  0  0  0  0  0  0  0  0  0
    7.7000   -3.7625    0.0000 N   0  0  0  0  0  0  0  0  0  0  0  0
    1.5375   -1.6292    0.0000 N   0  0  0  0  0  0  0  0  0  0  0  0
    2.7667   -0.9167    0.0000 C   0  0  0  0  0  0  0  0  0  0  0  0
    2.7667   -2.3375    0.0000 C   0  0  0  0  0  0  0  0  0  0  0  0
    6.4667   -3.0500    0.0000 C   0  0  0  0  0  0  0  0  0  0  0  0
    7.2875   -3.0500    0.0000 C   0  0  0  0  0  0  0  0  0  0  0  0
    6.0542   -2.3375    0.0000 C   0  0  0  0  0  0  0  0  0  0  0  0
    7.4875   -4.5542    0.0000 C   0  0  0  0  0  0  0  0  0  0  0  0
    8.5167   -3.7625    0.0000 C   0  0  0  0  0  0  0  0  0  0  0  0
    6.6917   -4.7667    0.0000 C   0  0  0  0  0  0  0  0  0  0  0  0
    8.9292   -4.4750    0.0000 C   0  0  0  0  0  0  0  0  0  0  0  0
    6.4792   -5.5667    0.0000 C   0  0  0  0  0  0  0  0  0  0  0  0
    9.7542   -4.4750    0.0000 C   0  0  0  0  0  0  0  0  0  0  0  0
    5.6792   -5.7792    0.0000 C   0  0  0  0  0  0  0  0  0  0  0  0
   10.1667   -5.1875    0.0000 C   0  0  0  0  0  0  0  0  0  0  0  0
  2  1  1  0
  3  1  2  0
  4  2  2  0
  5  2  1  0
  6 10  1  0
  7  1  1  0
  8 13  1  0
  9  6  1  0
 10  5  2  0
 11  4  1  0
 12 14  1  0
 13 12  1  0
 14  7  1  0
 15  8  1  0
 16  8  1  0
 17 15  1  0
 18 16  1  0
 19 17  1  0
 20 18  1  0
 21 19  1  0
 22 20  1  0
  6 11  2  0
M  END
>  <ID>  (780) 


>  <MOLENAME>  (780) 
BUTACAINE

>  <therap>  (780) 
anesthetic (local)

>  <ref>  (780) 
Biochem J 148:527 (1975); Arch Biochem Biophys 193:76 (1979); J Biol Chem 258:7974 (1983)

>  <cas#>  (780) 
149-16-6

>  <source>  (780) 
synthetic

>  <status>  (780) 
USP-XX, INN, BAN

>  <tradename>  (780) 
BUTYN

>  <SMILES>  (780) 
CCCCN(CCCC)CCCOC(=O)c1ccc(N)cc1

>  <standardized_failed>  (780) 
False

$$$$

     RDKit          2D

 32 35  0  0  0  0  0  0  0  0999 V2000
    6.6417   -3.1042    0.0000 C   0  0  0  0  0  0  0  0  0  0  0  0
    5.2042   -3.9125    0.0000 C   0  0  0  0  0  0  0  0  0  0  0  0
    7.4292   -2.8542    0.0000 C   0  0  0  0  0  0  0  0  0  0  0  0
    4.4917   -4.3167    0.0000 C   0  0  0  0  0  0  0  0  0  0  0  0
    6.6375   -3.9292    0.0000 C   0  0  0  0  0  0  0  0  0  0  0  0
    5.9167   -4.3292    0.0000 C   0  0  0  0  0  0  0  0  0  0  0  0
    4.4917   -5.1500    0.0000 C   0  0  0  0  0  0  0  0  0  0  0  0
    5.2125   -3.0875    0.0000 C   0  0  0  0  0  0  0  0  0  0  0  0
    5.9375   -2.6792    0.0000 C   0  0  0  0  0  0  0  0  0  0  0  0
    7.9042   -3.5292    0.0000 C   0  0  0  0  0  0  0  0  0  0  0  0
    3.7792   -3.9042    0.0000 C   0  0  0  0  0  0  0  0  0  0  0  0
    7.4167   -4.1875    0.0000 C   0  0  0  0  0  0  0  0  0  0  0  0
    3.7792   -5.5542    0.0000 C   0  0  0  0  0  0  0  0  0  0  0  0
    7.6417   -2.0542    0.0000 C   0  0  0  0  0  0  0  0  0  0  0  0
    8.2542   -2.8542    0.0000 O   0  0  0  0  0  0  0  0  0  0  0  0
    5.9167   -5.1542    0.0000 C   0  0  0  0  0  0  0  0  0  0  0  0
    3.0750   -4.3167    0.0000 C   0  0  0  0  0  0  0  0  0  0  0  0
    3.0750   -5.1500    0.0000 C   0  0  0  0  0  0  0  0  0  0  0  0
    9.0500   -2.6417    0.0000 C   0  0  0  0  0  0  0  0  0  0  0  0
    5.2042   -5.5625    0.0000 C   0  0  0  0  0  0  0  0  0  0  0  0
    5.2042   -4.7375    0.0000 F   0  0  0  0  0  0  0  0  0  0  0  0
    7.0542   -1.4750    0.0000 O   0  0  0  0  0  0  0  0  0  0  0  0
    9.2542   -1.8417    0.0000 O   0  0  0  0  0  0  0  0  0  0  0  0
    2.3542   -5.5625    0.0000 O   0  0  0  0  0  0  0  0  0  0  0  0
    6.6417   -2.2792    0.0000 C   0  0  0  0  0  0  0  0  0  0  0  0
    4.5042   -2.6667    0.0000 O   0  0  0  0  0  0  0  0  0  0  0  0
    4.4917   -3.5000    0.0000 C   0  0  0  0  0  0  0  0  0  0  0  0
    8.4292   -1.8375    0.0000 C   0  0  0  0  0  0  0  0  0  0  0  0
    8.4167   -1.0292    0.0000 Cl  0  0  0  0  0  0  0  0  0  0  0  0
    8.7292   -3.5292    0.0000 C   0  0  0  0  0  0  0  0  0  0  0  0
    9.6292   -3.2167    0.0000 C   0  0  0  0  0  0  0  0  0  0  0  0
   10.4292   -3.0042    0.0000 C   0  0  0  0  0  0  0  0  0  0  0  0
  2  8  1  0
  3  1  1  0
  4  2  1  0
  5  1  1  0
  6  5  1  0
  7  4  1  0
  8  9  1  0
  9  1  1  0
 10  3  1  0
 11  4  1  0
 12  5  1  0
 13  7  2  0
  3 14  1  0
  3 15  1  6
 16  6  1  0
 17 11  2  0
 18 17  1  0
 19 15  1  0
 20 16  1  0
  2 21  1  6
 22 14  2  0
 23 19  2  0
 24 18  2  0
  1 25  1  1
  8 26  1  1
  4 27  1  1
 28 14  1  0
 29 28  1  0
 10 30  1  1
 31 19  1  0
 32 31  1  0
 12 10  1  0
  6  2  1  0
  7 20  1  0
 13 18  1  0
M  END
>  <ID>  (781) 


>  <MOLENAME>  (781) 
CLOBETASOL PROPIONATE

>  <therap>  (781) 
glucocorticoid, antiinflammatory

>  <ref>  (781) 
J Am Acad Dermatol 15:246 (1986)

>  <cas#>  (781) 
25122-46-7, 25122-41-2 [clobetasol]

>  <source>  (781) 
synthetic; CCI-4725, GR-2/925

>  <status>  (781) 
USP, INN, BAN, JAN

>  <tradename>  (781) 
CLOBEX

>  <SMILES>  (781) 
CCC(=O)O[C@]1(C(=O)CCl)[C@@H](C)CC2C3CCC4=CC(=O)C=C[C@]4(C)[C@@]3(F)[C@@H](O)C[C@@]21C

>  <standardized_failed>  (781) 
False

$$$$

     RDKit          2D

 17 17  0  0  0  0  0  0  0  0999 V2000
    3.7250   -1.8750    0.0000 C   0  0  0  0  0  0  0  0  0  0  0  0
    3.3125   -2.5875    0.0000 C   0  0  0  0  0  0  0  0  0  0  0  0
    2.4875   -2.5875    0.0000 C   0  0  0  0  0  0  0  0  0  0  0  0
    3.3125   -1.1625    0.0000 C   0  0  0  0  0  0  0  0  0  0  0  0
    2.0792   -1.8792    0.0000 C   0  0  0  0  0  0  0  0  0  0  0  0
    4.5500   -1.8750    0.0000 C   0  0  0  0  0  0  0  0  0  0  0  0
    2.4875   -1.1667    0.0000 C   0  0  0  0  0  0  0  0  0  0  0  0
    5.7875   -2.5917    0.0000 C   0  0  0  0  0  0  0  0  0  0  0  0
    4.9625   -2.5917    0.0000 C   0  0  0  0  0  0  0  0  0  0  0  0
    6.2000   -1.8792    0.0000 O   0  0  0  0  0  0  0  0  0  0  0  0
    2.0792   -3.3000    0.0000 N   0  0  0  0  0  0  0  0  0  0  0  0
    3.7250   -3.3042    0.0000 I   0  0  0  0  0  0  0  0  0  0  0  0
    3.7250   -0.4500    0.0000 I   0  0  0  0  0  0  0  0  0  0  0  0
    1.2542   -1.8792    0.0000 I   0  0  0  0  0  0  0  0  0  0  0  0
    6.2000   -3.3042    0.0000 O   0  0  0  0  0  0  0  0  0  0  0  0
    4.5500   -3.3042    0.0000 C   0  0  0  0  0  0  0  0  0  0  0  0
    4.9625   -4.0167    0.0000 C   0  0  0  0  0  0  0  0  0  0  0  0
  2  1  2  0
  3  2  1  0
  4  1  1  0
  5  7  1  0
  6  1  1  0
  7  4  2  0
  8  9  1  0
  9  6  1  0
 10  8  2  0
 11  3  1  0
 12  2  1  0
 13  4  1  0
 14  5  1  0
 15  8  1  0
 16  9  1  0
 17 16  1  0
  5  3  2  0
M  END
>  <ID>  (782) 


>  <MOLENAME>  (782) 
IOPANIC ACID

>  <therap>  (782) 
radioopaque agent

>  <ref>  (782) 
Thyroid (2001), 11(6), 561-567; J. Am. Pharm. Assoc. (1959), 48, 368-79; J. Am. Chem. Soc. (1949), 71, 3753-5

>  <cas#>  (782) 
96-83-3

>  <source>  (782) 
synthetic

>  <status>  (782) 
USP, INN, BAN, JAN

>  <tradename>  (782) 
TELEPAQUE

>  <SMILES>  (782) 
CCC(Cc1c(I)c(N)c(I)cc1I)C(=O)O

>  <standardized_failed>  (782) 
False

$$$$

     RDKit          2D

 27 28  0  0  0  0  0  0  0  0999 V2000
    6.4750   -3.1292    0.0000 N   0  0  0  0  0  0  0  0  0  0  0  0
    6.6500   -3.9375    0.0000 C   0  0  0  0  0  0  0  0  0  0  0  0
    5.6542   -3.0500    0.0000 C   0  0  0  0  0  0  0  0  0  0  0  0
    7.4667   -4.0167    0.0000 C   0  0  0  0  0  0  0  0  0  0  0  0
    5.9292   -4.3542    0.0000 C   0  0  0  0  0  0  0  0  0  0  0  0
    5.3167   -3.8000    0.0000 C   0  0  0  0  0  0  0  0  0  0  0  0
    5.2417   -2.3292    0.0000 C   0  0  0  0  0  0  0  0  0  0  0  0
    7.8792   -4.7292    0.0000 C   0  0  0  0  0  0  0  0  0  0  0  0
    7.1875   -2.7167    0.0000 C   0  0  0  0  0  0  0  0  0  0  0  0
    7.8000   -3.2667    0.0000 C   0  0  0  0  0  0  0  0  0  0  0  0
    7.8417   -0.1875    0.0000 C   0  0  0  0  0  0  0  0  0  0  0  0
    5.6542   -1.6167    0.0000 O   0  0  0  0  0  0  0  0  0  0  0  0
    4.4167   -2.3292    0.0000 C   0  0  0  0  0  0  0  0  0  0  0  0
    7.4667   -5.4500    0.0000 O   0  0  0  0  0  0  0  0  0  0  0  0
    7.8375    0.4958    0.0000 N   0  0  0  0  0  0  0  0  0  0  0  0
    8.7042   -4.7292    0.0000 O   0  0  0  0  0  0  0  0  0  0  0  0
    7.2500    0.1500    0.0000 C   0  0  0  0  0  0  0  0  0  0  0  0
    7.8417   -0.8667    0.0000 C   0  0  0  0  0  0  0  0  0  0  0  0
    8.4292    0.1500    0.0000 C   0  0  0  0  0  0  0  0  0  0  0  0
    7.2500   -1.2125    0.0000 O   0  0  0  0  0  0  0  0  0  0  0  0
    6.6625   -0.1875    0.0000 O   0  0  0  0  0  0  0  0  0  0  0  0
    9.0167   -0.1917    0.0000 O   0  0  0  0  0  0  0  0  0  0  0  0
    4.0042   -1.6167    0.0000 C   0  0  0  0  0  0  0  0  0  0  0  0
    4.0042   -3.0417    0.0000 C   0  0  0  0  0  0  0  0  0  0  0  0
    3.1792   -1.6250    0.0000 C   0  0  0  0  0  0  0  0  0  0  0  0
    3.1792   -3.0417    0.0000 C   0  0  0  0  0  0  0  0  0  0  0  0
    2.7750   -2.3375    0.0000 C   0  0  0  0  0  0  0  0  0  0  0  0
  2  1  1  0
  3  1  1  0
  4  2  1  0
  5  2  2  0
  6  3  2  0
  7  3  1  0
  8  4  1  0
  9  1  1  0
 10  9  1  0
 12  7  2  0
 13  7  1  0
 14  8  2  0
 15 11  1  0
 16  8  1  0
 17 11  1  0
 18 11  1  0
 19 11  1  0
 20 18  1  0
 21 17  1  0
 22 19  1  0
 23 13  2  0
 24 13  1  0
 25 23  1  0
 26 24  2  0
 27 26  1  0
  6  5  1  0
  4 10  1  0
 25 27  2  0
M  END
>  <ID>  (783) 


>  <MOLENAME>  (783) 
KETOROLAC TROMETHAMINE

>  <therap>  (783) 
antiinflammatory

>  <ref>  (783) 
Agents Actions 12:684 (1982); Clin Pharmacol Ther 39:89 (1986)

>  <cas#>  (783) 
74103-07-4, 74103-06-3 [ketorolac]

>  <source>  (783) 
synthetic

>  <status>  (783) 
USP, INN, BAN

>  <tradename>  (783) 
TORADOL

>  <SMILES>  (783) 
O=C(c1ccccc1)c1ccc2C(C(=O)O)CCn12

>  <standardized_failed>  (783) 
False

$$$$

     RDKit          2D

 25 27  0  0  0  0  0  0  0  0999 V2000
    4.6500   -5.6792    0.0000 C   0  0  0  0  0  0  0  0  0  0  0  0
    4.1542   -5.0125    0.0000 N   0  0  0  0  0  0  0  0  0  0  0  0
    4.1667   -6.3500    0.0000 N   0  0  0  0  0  0  0  0  0  0  0  0
    5.4750   -5.6750    0.0000 S   0  0  0  0  0  0  0  0  0  0  0  0
    6.7167   -6.3792    0.0000 C   0  0  0  0  0  0  0  0  0  0  0  0
    5.8917   -6.3875    0.0000 C   0  0  0  0  0  0  0  0  0  0  0  0
    9.5792   -4.2167    0.0000 C   0  0  0  0  0  0  0  0  0  0  0  0
    7.1167   -5.6667    0.0000 C   0  0  0  0  0  0  0  0  0  0  0  0
    3.3750   -5.2750    0.0000 C   0  0  0  0  0  0  0  0  0  0  0  0
    3.3792   -6.1000    0.0000 C   0  0  0  0  0  0  0  0  0  0  0  0
    7.1292   -7.0917    0.0000 N   0  0  0  0  0  0  0  0  0  0  0  0
    7.9417   -5.6542    0.0000 C   0  0  0  0  0  0  0  0  0  0  0  0
    5.8792   -4.9542    0.0000 O   0  0  0  0  0  0  0  0  0  0  0  0
    8.3417   -4.9417    0.0000 O   0  0  0  0  0  0  0  0  0  0  0  0
    9.1667   -4.9292    0.0000 C   0  0  0  0  0  0  0  0  0  0  0  0
   10.4042   -4.2042    0.0000 F   0  0  0  0  0  0  0  0  0  0  0  0
    9.1542   -3.5042    0.0000 F   0  0  0  0  0  0  0  0  0  0  0  0
    9.9875   -3.5000    0.0000 F   0  0  0  0  0  0  0  0  0  0  0  0
    7.9542   -7.0917    0.0000 C   0  0  0  0  0  0  0  0  0  0  0  0
    8.3625   -6.3750    0.0000 C   0  0  0  0  0  0  0  0  0  0  0  0
    6.7000   -4.9542    0.0000 C   0  0  0  0  0  0  0  0  0  0  0  0
    2.6542   -4.8625    0.0000 C   0  0  0  0  0  0  0  0  0  0  0  0
    2.6542   -6.5167    0.0000 C   0  0  0  0  0  0  0  0  0  0  0  0
    1.9417   -6.1042    0.0000 C   0  0  0  0  0  0  0  0  0  0  0  0
    1.9417   -5.2750    0.0000 C   0  0  0  0  0  0  0  0  0  0  0  0
  2  1  2  0
  3  1  1  0
  4  1  1  0
  5  6  1  0
  6  4  1  0
  7 15  1  0
  8  5  2  0
  9  2  1  0
 10  3  1  0
 11  5  1  0
 12  8  1  0
 13  4  2  0
 14 12  1  0
 15 14  1  0
 16  7  1  0
 17  7  1  0
 18  7  1  0
 19 11  2  0
 20 19  1  0
 21  8  1  0
 22  9  2  0
 23 10  2  0
 24 23  1  0
 25 22  1  0
  9 10  1  0
 25 24  2  0
 12 20  2  0
M  END
>  <ID>  (784) 


>  <MOLENAME>  (784) 
LANSOPRAZOLE

>  <therap>  (784) 
antiulcer

>  <ref>  (784) 
Chem. Pharm. Bull. (1990), 38(10), 2853-8; J. Pharmacol. Exp. Ther. (1989), 248(2), 799-805; J. Pharmacol. Exp. Ther. (1989), 248(2), 806-15

>  <cas#>  (784) 
103577-45-3

>  <source>  (784) 
synthetic; AG-1749, A-65006

>  <status>  (784) 
USP, INN, BAN

>  <tradename>  (784) 
PREVACID

>  <SMILES>  (784) 
Cc1c(OCC(F)(F)F)ccnc1C[S+]([O-])c1nc2ccccc2[nH]1

>  <standardized_failed>  (784) 
False

$$$$

     RDKit          2D

 14 13  0  0  0  0  0  0  0  0999 V2000
    2.4417   -2.3417    0.0000 C   0  0  0  0  0  0  0  0  0  0  0  0
    3.2667   -2.3417    0.0000 O   0  0  0  0  0  0  0  0  0  0  0  0
    2.0292   -1.6292    0.0000 C   0  0  0  0  0  0  0  0  0  0  0  0
    2.0292   -3.0542    0.0000 C   0  0  0  0  0  0  0  0  0  0  0  0
    3.6792   -3.0542    0.0000 C   0  0  0  0  0  0  0  0  0  0  0  0
    6.5417   -3.1167    0.0000 Cl  0  0  0  0  0  0  0  0  0  0  0  0
    4.9167   -2.3417    0.0000 N   0  0  0  0  0  0  0  0  0  0  0  0
    4.5042   -3.0542    0.0000 C   0  0  0  0  0  0  0  0  0  0  0  0
    0.8000   -2.3417    0.0000 C   0  0  0  0  0  0  0  0  0  0  0  0
    1.2042   -1.6292    0.0000 C   0  0  0  0  0  0  0  0  0  0  0  0
    1.2042   -3.0542    0.0000 C   0  0  0  0  0  0  0  0  0  0  0  0
    2.4417   -0.9167    0.0000 C   0  0  0  0  0  0  0  0  0  0  0  0
    2.4417   -3.7667    0.0000 C   0  0  0  0  0  0  0  0  0  0  0  0
    4.9167   -3.7750    0.0000 C   0  0  0  0  0  0  0  0  0  0  0  0
  2  1  1  0
  3  1  2  0
  4  1  1  0
  5  2  1  0
  7  8  1  0
  8  5  1  0
  9 11  1  0
 10  3  1  0
 11  4  2  0
 12  3  1  0
 13  4  1  0
 14  8  1  0
 10  9  2  0
M  END
>  <ID>  (785) 


>  <MOLENAME>  (785) 
MEXILETINE HYDROCHLORIDE

>  <therap>  (785) 
antiarrhythmic

>  <ref>  (785) 
Adv. Neurol. (2002), 88, 147-157; Drugs (1979), 17(3), 161-81; Br. J. Pharmacol. (1977), 61(1), 118P-19P

>  <cas#>  (785) 
5370-01-4, 31828-71-4 [mexiletine]

>  <source>  (785) 
synthetic; Ko-1173

>  <status>  (785) 
USP, INN, BAN, JAN

>  <tradename>  (785) 
nan

>  <SMILES>  (785) 
Cc1c(OCC(C)N)c(C)ccc1

>  <standardized_failed>  (785) 
False

$$$$

     RDKit          2D

 28 28  0  0  0  0  0  0  0  0999 V2000
    1.7042    1.0625    0.0000 C   0  0  0  0  0  0  0  0  0  0  0  0
    4.9000   -0.4792    0.0000 C   0  0  0  0  0  0  0  0  0  0  0  0
    2.2750    0.7333    0.0000 C   0  0  0  0  0  0  0  0  0  0  0  0
    1.1417    0.7333    0.0000 C   0  0  0  0  0  0  0  0  0  0  0  0
    2.7625   -0.8917    0.0000 C   0  0  0  0  0  0  0  0  0  0  0  0
    4.8917    0.3458    0.0000 N   0  0  0  0  0  0  0  0  0  0  0  0
    1.7042    1.7208    0.0000 C   0  0  0  0  0  0  0  0  0  0  0  0
    4.1875   -0.8917    0.0000 C   0  0  0  0  0  0  0  0  0  0  0  0
    5.6125   -0.8917    0.0000 N   0  0  0  0  0  0  0  0  0  0  0  0
    3.4750   -0.4792    0.0000 C   0  0  0  0  0  0  0  0  0  0  0  0
    2.5042   -1.6792    0.0000 C   0  0  0  0  0  0  0  0  0  0  0  0
    2.0917   -0.4125    0.0000 S   0  0  0  0  0  0  0  0  0  0  0  0
    0.5750    1.0625    0.0000 C   0  0  0  0  0  0  0  0  0  0  0  0
    2.8417    1.0625    0.0000 C   0  0  0  0  0  0  0  0  0  0  0  0
    1.4292   -0.8917    0.0000 C   0  0  0  0  0  0  0  0  0  0  0  0
    1.6792   -1.6792    0.0000 C   0  0  0  0  0  0  0  0  0  0  0  0
    1.1417    2.0458    0.0000 O   0  0  0  0  0  0  0  0  0  0  0  0
    2.8417    1.7208    0.0000 O   0  0  0  0  0  0  0  0  0  0  0  0
    0.5750    1.7208    0.0000 O   0  0  0  0  0  0  0  0  0  0  0  0
    1.7042    0.4083    0.0000 O   0  0  0  0  0  0  0  0  0  0  0  0
    2.2750    2.0458    0.0000 O   0  0  0  0  0  0  0  0  0  0  0  0
    3.4042    0.7333    0.0000 O   0  0  0  0  0  0  0  0  0  0  0  0
    0.0042    0.7333    0.0000 O   0  0  0  0  0  0  0  0  0  0  0  0
    5.6125    0.7583    0.0000 C   0  0  0  0  0  0  0  0  0  0  0  0
    6.3167   -0.4792    0.0000 C   0  0  0  0  0  0  0  0  0  0  0  0
    4.1792    0.7583    0.0000 C   0  0  0  0  0  0  0  0  0  0  0  0
    6.3250    0.3458    0.0000 C   0  0  0  0  0  0  0  0  0  0  0  0
    2.9917   -2.3500    0.0000 C   0  0  0  0  0  0  0  0  0  0  0  0
  3  1  1  0
  4  1  1  0
  5 10  1  0
  6  2  1  0
  7  1  1  0
  8  2  1  0
  9  2  2  0
 10  8  2  0
 11  5  2  0
 12  5  1  0
 13  4  1  0
 14  3  1  0
 15 12  1  0
 16 11  1  0
 17  7  2  0
 18 14  2  0
 19 13  2  0
 20  1  1  0
 21  7  1  0
 22 14  1  0
 23 13  1  0
 24  6  1  0
 25  9  1  0
 26  6  1  0
 27 25  1  0
 28 11  1  0
 27 24  1  0
 15 16  2  0
M  END
>  <ID>  (786) 


>  <MOLENAME>  (786) 
MORANTEL CITRATE

>  <therap>  (786) 
anthelmintic

>  <ref>  (786) 
Comp. Biochem. Physiol., C:(1988), 91C(2), 525-33; Ann. Trop. Med. Parasitol. (1970), 64(4), 525-31; J. Med. Chem. (1969), 12(5), 1066-79

>  <cas#>  (786) 
26155-31-7, 20574-50-9 [morantel]

>  <source>  (786) 
synthetic; CP-12009

>  <status>  (786) 
USAN, INN, BAN

>  <tradename>  (786) 
nan

>  <SMILES>  (786) 
Cc1c(/C=C/C2=NCCCN2C)scc1

>  <standardized_failed>  (786) 
False

$$$$

     RDKit          2D

 27 30  0  0  0  0  0  0  0  0999 V2000
    1.4167   -2.6750    0.0000 N   0  0  0  0  0  0  0  0  0  0  0  0
    2.1292   -3.0917    0.0000 C   0  0  0  0  0  0  0  0  0  0  0  0
    1.4167   -4.3167    0.0000 S   0  0  0  0  0  0  0  0  0  0  0  0
    0.7042   -3.0917    0.0000 C   0  0  0  0  0  0  0  0  0  0  0  0
    2.1292   -3.9125    0.0000 C   0  0  0  0  0  0  0  0  0  0  0  0
    0.7042   -3.9167    0.0000 C   0  0  0  0  0  0  0  0  0  0  0  0
    2.8375   -2.6792    0.0000 C   0  0  0  0  0  0  0  0  0  0  0  0
    3.5542   -1.4292    0.0000 N   0  0  0  0  0  0  0  0  0  0  0  0
    4.9792   -0.6125    0.0000 N   0  0  0  0  0  0  0  0  0  0  0  0
    2.8417   -4.3167    0.0000 C   0  0  0  0  0  0  0  0  0  0  0  0
    1.4167   -1.8500    0.0000 C   0  0  0  0  0  0  0  0  0  0  0  0
    3.5500   -3.0875    0.0000 C   0  0  0  0  0  0  0  0  0  0  0  0
    4.9750   -1.4292    0.0000 C   0  0  0  0  0  0  0  0  0  0  0  0
    4.2667   -1.8417    0.0000 C   0  0  0  0  0  0  0  0  0  0  0  0
    4.2667   -0.2000    0.0000 C   0  0  0  0  0  0  0  0  0  0  0  0
    3.5500   -0.6042    0.0000 C   0  0  0  0  0  0  0  0  0  0  0  0
    2.1292   -1.4375    0.0000 C   0  0  0  0  0  0  0  0  0  0  0  0
    3.5542   -3.9125    0.0000 C   0  0  0  0  0  0  0  0  0  0  0  0
    4.2625   -2.6667    0.0000 Cl  0  0  0  0  0  0  0  0  0  0  0  0
    2.8417   -1.8417    0.0000 C   0  0  0  0  0  0  0  0  0  0  0  0
    0.0000   -2.6792    0.0000 C   0  0  0  0  0  0  0  0  0  0  0  0
    5.6917   -0.2000    0.0000 C   0  0  0  0  0  0  0  0  0  0  0  0
   -0.0083   -4.3167    0.0000 C   0  0  0  0  0  0  0  0  0  0  0  0
    7.1250   -0.2042    0.0000 O   0  0  0  0  0  0  0  0  0  0  0  0
    6.4042   -0.6167    0.0000 C   0  0  0  0  0  0  0  0  0  0  0  0
   -0.7208   -3.0875    0.0000 C   0  0  0  0  0  0  0  0  0  0  0  0
   -0.7125   -3.9167    0.0000 C   0  0  0  0  0  0  0  0  0  0  0  0
  2  1  1  0
  3  6  1  0
  4  1  1  0
  5  2  2  0
  6  4  2  0
  7  2  1  0
  8 20  1  0
  9 15  1  0
 10  5  1  0
 11  1  1  0
 12  7  2  0
 13 14  1  0
 14  8  1  0
 15 16  1  0
 16  8  1  0
 17 11  1  0
 18 12  1  0
 19 12  1  0
 20 17  1  0
 21  4  1  0
 22  9  1  0
 23  6  1  0
 24 25  1  0
 25 22  1  0
 26 21  2  0
 27 26  1  0
  3  5  1  0
 27 23  2  0
 10 18  2  0
 13  9  1  0
M  END
>  <ID>  (787) 


>  <MOLENAME>  (787) 
PERPHENAZINE

>  <therap>  (787) 
antipsychotic

>  <ref>  (787) 
Obstet Gynecol 14:337 (1959); J Endocrinol 94, 267 (1982); J Clin Pharmacol 50:73 (2010)

>  <cas#>  (787) 
58-39-9

>  <source>  (787) 
synthetic

>  <status>  (787) 
USP, INN, BAN, JAN

>  <tradename>  (787) 
TRILAFON

>  <SMILES>  (787) 
OCCN1CCN(CCCN2c3c(cccc3)Sc3c2cc(Cl)cc3)CC1

>  <standardized_failed>  (787) 
False

$$$$

     RDKit          2D

 33 34  0  0  0  0  0  0  0  0999 V2000
    0.3292   -1.1250    0.0000 C   0  0  0  0  0  0  0  0  0  0  0  0
    1.1542   -1.1250    0.0000 N   0  0  0  0  0  0  0  0  0  0  0  0
    1.8667   -0.7125    0.0000 C   0  0  0  0  0  0  0  0  0  0  0  0
    6.7292   -0.6667    0.0000 C   0  0  0  0  0  0  0  0  0  0  0  0
    3.2917   -0.7125    0.0000 N   0  0  0  0  0  0  0  0  0  0  0  0
    7.3250   -0.3292    0.0000 O   0  0  0  0  0  0  0  0  0  0  0  0
    2.5792   -1.1250    0.0000 C   0  0  0  0  0  0  0  0  0  0  0  0
    6.1417   -0.3292    0.0000 O   0  0  0  0  0  0  0  0  0  0  0  0
   -0.0833   -0.4125    0.0000 C   0  0  0  0  0  0  0  0  0  0  0  0
   -0.0833   -1.8375    0.0000 C   0  0  0  0  0  0  0  0  0  0  0  0
    1.8625    0.1125    0.0000 O   0  0  0  0  0  0  0  0  0  0  0  0
    6.7375   -1.3542    0.0000 C   0  0  0  0  0  0  0  0  0  0  0  0
    4.0042   -1.1250    0.0000 C   0  0  0  0  0  0  0  0  0  0  0  0
    4.0000   -1.9500    0.0000 C   0  0  0  0  0  0  0  0  0  0  0  0
    3.8750   -0.1250    0.0000 C   0  0  0  0  0  0  0  0  0  0  0  0
    2.8125   -0.0000    0.0000 C   0  0  0  0  0  0  0  0  0  0  0  0
   -1.3208   -1.1292    0.0000 C   0  0  0  0  0  0  0  0  0  0  0  0
   -0.9083   -1.8375    0.0000 C   0  0  0  0  0  0  0  0  0  0  0  0
   -0.9083   -0.4167    0.0000 C   0  0  0  0  0  0  0  0  0  0  0  0
    0.3292    0.3000    0.0000 C   0  0  0  0  0  0  0  0  0  0  0  0
    0.3292   -2.5542    0.0000 C   0  0  0  0  0  0  0  0  0  0  0  0
    6.1500   -1.7000    0.0000 C   0  0  0  0  0  0  0  0  0  0  0  0
    7.3292   -1.6917    0.0000 C   0  0  0  0  0  0  0  0  0  0  0  0
    3.2792   -2.3542    0.0000 C   0  0  0  0  0  0  0  0  0  0  0  0
    4.7125   -2.3542    0.0000 C   0  0  0  0  0  0  0  0  0  0  0  0
    4.7000   -0.1250    0.0000 C   0  0  0  0  0  0  0  0  0  0  0  0
    3.0167    0.8000    0.0000 C   0  0  0  0  0  0  0  0  0  0  0  0
    7.3292   -2.3792    0.0000 C   0  0  0  0  0  0  0  0  0  0  0  0
    6.1500   -2.3792    0.0000 C   0  0  0  0  0  0  0  0  0  0  0  0
    4.7167   -3.1792    0.0000 C   0  0  0  0  0  0  0  0  0  0  0  0
    3.2792   -3.1792    0.0000 C   0  0  0  0  0  0  0  0  0  0  0  0
    3.9917   -3.5917    0.0000 C   0  0  0  0  0  0  0  0  0  0  0  0
    6.7375   -2.7167    0.0000 C   0  0  0  0  0  0  0  0  0  0  0  0
  2  1  1  0
  3  2  1  0
  5  7  1  0
  6  4  1  0
  7  3  1  0
  8  4  2  0
  9  1  2  0
 10  1  1  0
 11  3  2  0
 12  4  1  0
 13  5  1  0
 14 13  1  0
 15  5  1  0
 16  5  1  0
 17 19  2  0
 18 10  2  0
 19  9  1  0
 20  9  1  0
 21 10  1  0
 22 12  2  0
 23 12  1  0
 24 14  2  0
 25 14  1  0
 26 15  1  0
 27 16  1  0
 28 23  2  0
 29 22  1  0
 30 25  2  0
 31 24  1  0
 32 30  1  0
 33 28  1  0
 18 17  1  0
 32 31  2  0
 33 29  2  0
M  CHG  2   5   1   6  -1
M  END
>  <ID>  (788) 


>  <MOLENAME>  (788) 
DENATONIUM BENZOATE

>  <therap>  (788) 
denaturing agent, bitter principle

>  <ref>  (788) 
Chem Ind 22:721 (1988)

>  <cas#>  (788) 
3734-33-6

>  <source>  (788) 
synthetic; NSC-157658

>  <status>  (788) 
USAN, NF, INN, BAN

>  <tradename>  (788) 
BITREX

>  <SMILES>  (788) 
CC[N+](CC)(CC(=O)Nc1c(C)cccc1C)Cc1ccccc1

>  <standardized_failed>  (788) 
False

$$$$

     RDKit          2D

 57 60  0  0  0  0  0  0  0  0999 V2000
    3.1792   -7.2792    0.0000 C   0  0  0  0  0  0  0  0  0  0  0  0
    3.1458   -6.4542    0.0000 C   0  0  0  0  0  0  0  0  0  0  0  0
    2.5250   -5.6667    0.0000 C   0  0  0  0  0  0  0  0  0  0  0  0
    2.4958   -4.6542    0.0000 N   0  0  0  0  0  0  0  0  0  0  0  0
    3.8917   -7.6917    0.0000 O   0  0  0  0  0  0  0  0  0  0  0  0
    4.6375   -4.2500    0.0000 O   0  0  0  0  0  0  0  0  0  0  0  0
    3.9250   -4.6625    0.0000 C   0  0  0  0  0  0  0  0  0  0  0  0
    5.0042   -3.4875    0.0000 C   0  0  0  0  0  0  0  0  0  0  0  0
    3.8875   -8.5167    0.0000 C   0  0  0  0  0  0  0  0  0  0  0  0
    3.2083   -4.2500    0.0000 C   0  0  0  0  0  0  0  0  0  0  0  0
    4.5333   -2.7667    0.0000 C   0  0  0  0  0  0  0  0  0  0  0  0
    5.8458   -3.3917    0.0000 C   0  0  0  0  0  0  0  0  0  0  0  0
    2.4625   -7.6917    0.0000 C   0  0  0  0  0  0  0  0  0  0  0  0
    7.6458   -4.6292    0.0000 C   0  0  0  0  0  0  0  0  0  0  0  0
    6.3333   -4.0583    0.0000 C   0  0  0  0  0  0  0  0  0  0  0  0
    7.1542   -3.9667    0.0000 C   0  0  0  0  0  0  0  0  0  0  0  0
    4.9083   -2.0292    0.0000 C   0  0  0  0  0  0  0  0  0  0  0  0
    3.1708   -8.9292    0.0000 C   0  0  0  0  0  0  0  0  0  0  0  0
    6.4917   -5.4750    0.0000 C   0  0  0  0  0  0  0  0  0  0  0  0
    4.6000   -8.7750    0.0000 C   0  0  0  0  0  0  0  0  0  0  0  0
    6.1625   -6.2333    0.0000 C   0  0  0  0  0  0  0  0  0  0  0  0
    2.4583   -8.5125    0.0000 C   0  0  0  0  0  0  0  0  0  0  0  0
    7.3125   -5.3875    0.0000 C   0  0  0  0  0  0  0  0  0  0  0  0
    3.9375   -6.1375    0.0000 O   0  0  0  0  0  0  0  0  0  0  0  0
    1.8125   -6.0792    0.0000 O   0  0  0  0  0  0  0  0  0  0  0  0
    3.9208   -5.4875    0.0000 O   0  0  0  0  0  0  0  0  0  0  0  0
    3.1917   -0.6875    0.0000 C   0  0  0  0  0  0  0  0  0  0  0  0
    4.4583   -1.3417    0.0000 C   0  0  0  0  0  0  0  0  0  0  0  0
    5.3167   -8.5208    0.0000 C   0  0  0  0  0  0  0  0  0  0  0  0
    3.9750   -7.0667    0.0000 O   0  0  0  0  0  0  0  0  0  0  0  0
    3.6375   -1.3833    0.0000 C   0  0  0  0  0  0  0  0  0  0  0  0
    8.4625   -4.5375    0.0000 O   0  0  0  0  0  0  0  0  0  0  0  0
    3.5667    0.0500    0.0000 C   0  0  0  0  0  0  0  0  0  0  0  0
    5.4375   -6.6417    0.0000 C   0  0  0  0  0  0  0  0  0  0  0  0
    5.7208   -7.6500    0.0000 C   0  0  0  0  0  0  0  0  0  0  0  0
    8.6208   -5.9583    0.0000 C   0  0  0  0  0  0  0  0  0  0  0  0
    4.3917    0.0875    0.0000 C   0  0  0  0  0  0  0  0  0  0  0  0
    9.1083   -6.6250    0.0000 C   0  0  0  0  0  0  0  0  0  0  0  0
    1.7875   -4.2500    0.0000 C   0  0  0  0  0  0  0  0  0  0  0  0
    6.0042   -4.8125    0.0000 O   0  0  0  0  0  0  0  0  0  0  0  0
    4.8375   -0.6000    0.0000 C   0  0  0  0  0  0  0  0  0  0  0  0
    3.1667   -9.7542    0.0000 O   0  0  0  0  0  0  0  0  0  0  0  0
    4.6000   -9.6000    0.0000 O   0  0  0  0  0  0  0  0  0  0  0  0
    2.3667   -0.7292    0.0000 O   0  0  0  0  0  0  0  0  0  0  0  0
    3.1167    0.7417    0.0000 O   0  0  0  0  0  0  0  0  0  0  0  0
    3.7083   -2.8125    0.0000 C   0  0  0  0  0  0  0  0  0  0  0  0
    6.1792   -2.6375    0.0000 C   0  0  0  0  0  0  0  0  0  0  0  0
    7.8000   -6.0500    0.0000 C   0  0  0  0  0  0  0  0  0  0  0  0
    3.2083   -3.4250    0.0000 C   0  0  0  0  0  0  0  0  0  0  0  0
    1.7417   -7.2792    0.0000 C   0  0  0  0  0  0  0  0  0  0  0  0
    6.8125   -6.7667    0.0000 C   0  0  0  0  0  0  0  0  0  0  0  0
    6.5042   -7.8000    0.0000 C   0  0  0  0  0  0  0  0  0  0  0  0
    2.4458  -10.1583    0.0000 C   0  0  0  0  0  0  0  0  0  0  0  0
    3.8833  -10.1667    0.0000 C   0  0  0  0  0  0  0  0  0  0  0  0
    1.9167   -0.0333    0.0000 C   0  0  0  0  0  0  0  0  0  0  0  0
    1.7875   -3.4250    0.0000 C   0  0  0  0  0  0  0  0  0  0  0  0
    2.4958   -3.0042    0.0000 C   0  0  0  0  0  0  0  0  0  0  0  0
  2  1  1  0
  3  2  1  0
  4  3  1  0
  5  1  1  0
  6  7  1  0
 10  7  1  0
  8  6  1  6
  9  5  1  6
 10  4  1  0
 11  8  1  0
 12  8  1  0
 13  1  1  0
 14 23  1  0
 15 12  1  0
 16 15  1  0
 17 11  2  0
 18 22  1  0
 19 21  2  0
 20  9  1  0
 21 34  1  0
 22 13  1  0
 23 19  1  0
 24  2  2  0
 25  3  2  0
 26  7  2  0
 27 31  1  0
 17 28  1  0
 29 20  1  0
  1 30  1  1
 31 28  1  0
 32 14  2  0
 33 27  1  0
 34 35  1  0
 35 29  1  0
 36 48  1  0
 37 41  1  0
 38 36  2  0
 39  4  1  0
 15 40  1  6
 41 28  1  0
 18 42  1  1
 20 43  1  6
 27 44  1  1
 33 45  1  6
 46 11  1  0
 12 47  1  6
 23 48  1  6
 10 49  1  1
 13 50  1  1
 51 21  1  0
 35 52  1  6
 53 42  1  0
 54 43  1  0
 55 44  1  0
 56 39  1  0
 57 49  1  0
  9 18  1  0
 57 56  1  0
 14 16  1  0
 33 37  1  0
M  END
>  <ID>  (789) 


>  <MOLENAME>  (789) 
TACROLIMUS

>  <therap>  (789) 
immune suppressant, antifungal

>  <ref>  (789) 
Transplat Proc 22:83 (1990); 23:2709 (1991); Br Med J 318:1104 (1999)

>  <cas#>  (789) 
109581-93-3, 104987-11-3 [anhydrous]

>  <source>  (789) 
Streptomyces tsukubaensis; FK-506

>  <status>  (789) 
USAN, INN, BAN, JAN

>  <tradename>  (789) 
PROGRAF

>  <SMILES>  (789) 
C=CC[C@@H]1/C=C(\C)C[C@H](C)C[C@H](OC)[C@H]2O[C@@](O)(C(=O)C(=O)N3CCCC[C@H]3C(=O)O[C@H](/C(C)=C/C3CC[C@@H](O)[C@H](OC)C3)[C@H](C)[C@@H](O)CC1=O)[C@H](C)C[C@@H]2OC

>  <standardized_failed>  (789) 
False

$$$$

     RDKit          2D

 27 27  0  0  0  0  0  0  0  0999 V2000
    8.2042   -3.4417    0.0000 C   0  0  0  0  0  0  0  0  0  0  0  0
    8.2042   -2.0792    0.0000 C   0  0  0  0  0  0  0  0  0  0  0  0
    7.6167   -2.4250    0.0000 C   0  0  0  0  0  0  0  0  0  0  0  0
    7.6167   -3.1042    0.0000 C   0  0  0  0  0  0  0  0  0  0  0  0
    4.5917   -4.1292    0.0000 C   0  0  0  0  0  0  0  0  0  0  0  0
    4.5917   -3.3875    0.0000 C   0  0  0  0  0  0  0  0  0  0  0  0
    3.2917   -4.1417    0.0000 N   0  0  0  0  0  0  0  0  0  0  0  0
    5.2417   -4.5042    0.0000 C   0  0  0  0  0  0  0  0  0  0  0  0
    3.9417   -4.5167    0.0000 C   0  0  0  0  0  0  0  0  0  0  0  0
    8.7917   -3.1042    0.0000 O   0  0  0  0  0  0  0  0  0  0  0  0
    8.2042   -1.4000    0.0000 O   0  0  0  0  0  0  0  0  0  0  0  0
    5.8917   -4.1292    0.0000 C   0  0  0  0  0  0  0  0  0  0  0  0
    5.2417   -5.2625    0.0000 C   0  0  0  0  0  0  0  0  0  0  0  0
    5.2417   -3.0125    0.0000 C   0  0  0  0  0  0  0  0  0  0  0  0
    5.2417   -2.2625    0.0000 N   0  0  0  0  0  0  0  0  0  0  0  0
    6.5417   -5.2625    0.0000 C   0  0  0  0  0  0  0  0  0  0  0  0
    8.7917   -2.4250    0.0000 O   0  0  0  0  0  0  0  0  0  0  0  0
    8.2042   -4.1292    0.0000 O   0  0  0  0  0  0  0  0  0  0  0  0
    5.8917   -5.6375    0.0000 C   0  0  0  0  0  0  0  0  0  0  0  0
    6.5417   -4.5042    0.0000 C   0  0  0  0  0  0  0  0  0  0  0  0
    7.1917   -5.6417    0.0000 Br  0  0  0  0  0  0  0  0  0  0  0  0
    2.6417   -4.5167    0.0000 C   0  0  0  0  0  0  0  0  0  0  0  0
    3.9417   -5.2667    0.0000 C   0  0  0  0  0  0  0  0  0  0  0  0
    5.8875   -1.8875    0.0000 C   0  0  0  0  0  0  0  0  0  0  0  0
    4.5917   -1.8875    0.0000 C   0  0  0  0  0  0  0  0  0  0  0  0
    2.6417   -5.2667    0.0000 C   0  0  0  0  0  0  0  0  0  0  0  0
    3.2917   -5.6417    0.0000 C   0  0  0  0  0  0  0  0  0  0  0  0
  2  3  1  0
  3  4  2  0
  4  1  1  0
  6  5  1  0
  7  9  2  0
  8  5  1  0
  9  5  1  0
 10  1  2  0
 11  2  2  0
 12  8  2  0
 13  8  1  0
 14  6  1  0
 15 14  1  0
 16 19  1  0
 17  2  1  0
 18  1  1  0
 19 13  2  0
 20 12  1  0
 21 16  1  0
 22  7  1  0
 23  9  1  0
 24 15  1  0
 25 15  1  0
 26 27  1  0
 27 23  2  0
 16 20  2  0
 26 22  2  0
M  END
>  <ID>  (790) 


>  <MOLENAME>  (790) 
BROMPHENIRAMINE MALEATE

>  <therap>  (790) 
H1 antihistamine

>  <ref>  (790) 
Cur Med Res Opinion 5:366 (1978); Br J Clin Pharmacol 14:49 (1982); J Allergy Clin Immunol 103:223 (1999)

>  <cas#>  (790) 
980-71-2, 86-22-6 [brompheniramine]

>  <source>  (790) 
synthetic

>  <status>  (790) 
USP, INN, BAN

>  <tradename>  (790) 
DIMETANE

>  <SMILES>  (790) 
CN(C)CCC(c1ccc(Br)cc1)c1ncccc1

>  <standardized_failed>  (790) 
False

$$$$

     RDKit          2D

 65 68  0  0  0  0  0  0  0  0999 V2000
    2.1542   -4.1792    0.0000 C   0  0  0  0  0  0  0  0  0  0  0  0
    2.1542   -5.0042    0.0000 C   0  0  0  0  0  0  0  0  0  0  0  0
    2.8667   -3.7667    0.0000 C   0  0  0  0  0  0  0  0  0  0  0  0
    2.8667   -2.9375    0.0000 N   0  0  0  0  0  0  0  0  0  0  0  0
    4.3125   -2.1792    0.0000 C   0  0  0  0  0  0  0  0  0  0  0  0
    9.3167   -4.1792    0.0000 C   0  0  0  0  0  0  0  0  0  0  0  0
    5.2042   -2.1792    0.0000 O   0  0  0  0  0  0  0  0  0  0  0  0
    9.3167   -5.0042    0.0000 C   0  0  0  0  0  0  0  0  0  0  0  0
    7.8917   -4.1792    0.0000 C   0  0  0  0  0  0  0  0  0  0  0  0
    3.5792   -2.5250    0.0000 C   0  0  0  0  0  0  0  0  0  0  0  0
    2.8667   -5.4167    0.0000 O   0  0  0  0  0  0  0  0  0  0  0  0
    8.6042   -3.7667    0.0000 C   0  0  0  0  0  0  0  0  0  0  0  0
    7.1750   -3.7667    0.0000 C   0  0  0  0  0  0  0  0  0  0  0  0
    5.8125   -2.7625    0.0000 C   0  0  0  0  0  0  0  0  0  0  0  0
    5.6250   -4.1792    0.0000 C   0  0  0  0  0  0  0  0  0  0  0  0
    5.3042   -3.4167    0.0000 C   0  0  0  0  0  0  0  0  0  0  0  0
   10.0292   -5.4167    0.0000 C   0  0  0  0  0  0  0  0  0  0  0  0
    6.4542   -4.1792    0.0000 C   0  0  0  0  0  0  0  0  0  0  0  0
    5.0167   -6.6625    0.0000 C   0  0  0  0  0  0  0  0  0  0  0  0
    4.3000   -6.2500    0.0000 C   0  0  0  0  0  0  0  0  0  0  0  0
    1.4292   -3.7542    0.0000 O   0  0  0  0  0  0  0  0  0  0  0  0
    1.4417   -5.4167    0.0000 C   0  0  0  0  0  0  0  0  0  0  0  0
    3.5792   -6.6625    0.0000 C   0  0  0  0  0  0  0  0  0  0  0  0
    3.5875   -4.1875    0.0000 O   0  0  0  0  0  0  0  0  0  0  0  0
    2.8667   -6.2500    0.0000 C   0  0  0  0  0  0  0  0  0  0  0  0
    4.3292   -1.3667    0.0000 O   0  0  0  0  0  0  0  0  0  0  0  0
    8.7292   -1.0750    0.0000 C   0  0  0  0  0  0  0  0  0  0  0  0
    6.5917   -2.3542    0.0000 C   0  0  0  0  0  0  0  0  0  0  0  0
    8.6000   -5.4292    0.0000 O   0  0  0  0  0  0  0  0  0  0  0  0
    5.7292   -6.2500    0.0000 C   0  0  0  0  0  0  0  0  0  0  0  0
    2.8667   -4.5917    0.0000 O   0  0  0  0  0  0  0  0  0  0  0  0
   10.0292   -6.2500    0.0000 C   0  0  0  0  0  0  0  0  0  0  0  0
    8.0042   -1.4792    0.0000 C   0  0  0  0  0  0  0  0  0  0  0  0
    5.0417   -4.7542    0.0000 O   0  0  0  0  0  0  0  0  0  0  0  0
    6.5875   -1.4667    0.0000 C   0  0  0  0  0  0  0  0  0  0  0  0
    8.7250   -0.2500    0.0000 C   0  0  0  0  0  0  0  0  0  0  0  0
    6.4500   -6.6625    0.0000 C   0  0  0  0  0  0  0  0  0  0  0  0
    7.3000   -1.0625    0.0000 C   0  0  0  0  0  0  0  0  0  0  0  0
    7.1667   -6.2500    0.0000 C   0  0  0  0  0  0  0  0  0  0  0  0
    7.8792   -6.6625    0.0000 C   0  0  0  0  0  0  0  0  0  0  0  0
    8.6000   -6.2500    0.0000 C   0  0  0  0  0  0  0  0  0  0  0  0
    1.4417   -6.2500    0.0000 C   0  0  0  0  0  0  0  0  0  0  0  0
    8.0167    0.1625    0.0000 C   0  0  0  0  0  0  0  0  0  0  0  0
   10.0417   -3.7542    0.0000 O   0  0  0  0  0  0  0  0  0  0  0  0
    2.1542   -2.5250    0.0000 C   0  0  0  0  0  0  0  0  0  0  0  0
    8.6167   -2.9417    0.0000 O   0  0  0  0  0  0  0  0  0  0  0  0
    2.1542   -6.6625    0.0000 C   0  0  0  0  0  0  0  0  0  0  0  0
    9.3167   -6.6625    0.0000 C   0  0  0  0  0  0  0  0  0  0  0  0
    7.3042   -0.2417    0.0000 C   0  0  0  0  0  0  0  0  0  0  0  0
    4.3000   -5.4250    0.0000 O   0  0  0  0  0  0  0  0  0  0  0  0
    9.4500   -1.4875    0.0000 O   0  0  0  0  0  0  0  0  0  0  0  0
    7.8917   -5.0042    0.0000 C   0  0  0  0  0  0  0  0  0  0  0  0
    9.4417    0.1625    0.0000 O   0  0  0  0  0  0  0  0  0  0  0  0
    3.5792   -1.6917    0.0000 C   0  0  0  0  0  0  0  0  0  0  0  0
    5.0167   -7.4917    0.0000 C   0  0  0  0  0  0  0  0  0  0  0  0
   10.7542   -5.0000    0.0000 C   0  0  0  0  0  0  0  0  0  0  0  0
    6.4625   -5.0667    0.0000 C   0  0  0  0  0  0  0  0  0  0  0  0
    7.3417   -2.8042    0.0000 C   0  0  0  0  0  0  0  0  0  0  0  0
    0.7167   -5.0000    0.0000 C   0  0  0  0  0  0  0  0  0  0  0  0
   10.0417   -2.9292    0.0000 C   0  0  0  0  0  0  0  0  0  0  0  0
    3.5875   -5.0042    0.0000 C   0  0  0  0  0  0  0  0  0  0  0  0
   10.1625   -1.0667    0.0000 C   0  0  0  0  0  0  0  0  0  0  0  0
    9.3167   -7.4875    0.0000 C   0  0  0  0  0  0  0  0  0  0  0  0
    2.1542   -1.6917    0.0000 C   0  0  0  0  0  0  0  0  0  0  0  0
    2.8667   -1.2792    0.0000 C   0  0  0  0  0  0  0  0  0  0  0  0
  2  1  1  0
  3  1  1  0
  4  3  1  0
  5 10  1  0
  6 12  1  0
  7  5  1  0
  8  6  1  0
  9 13  2  0
 10  4  1  0
 11  2  1  0
 12  9  1  0
 13 18  1  0
 14  7  1  0
 15 16  1  0
 16 14  1  0
 17 32  1  0
 18 15  1  0
 19 20  1  0
 20 23  1  0
 21  1  2  0
 22  2  1  0
 23 25  1  0
 24  3  2  0
 25 11  1  0
 26  5  2  0
 27 33  1  0
 28 14  1  0
 29  8  2  0
 30 19  2  0
 31  2  1  0
 32 48  1  0
 33 38  1  0
 34 15  2  0
 35 28  1  0
 36 43  1  0
 37 30  1  0
 38 35  1  0
 39 37  2  0
 40 39  1  0
 41 40  2  0
 42 22  1  0
 43 49  1  0
 44  6  1  0
 45  4  1  0
 46 12  1  0
 47 42  1  0
 48 41  1  0
 49 38  1  0
 50 20  1  0
 51 27  1  0
 52  9  1  0
 53 36  1  0
 54 10  1  0
 55 19  1  0
 56 17  1  0
 57 18  1  0
 58 28  1  0
 59 22  1  0
 60 44  1  0
 61 50  1  0
 62 51  1  0
 63 48  1  0
 64 45  1  0
 65 64  1  0
 25 47  1  0
 54 65  1  0
 27 36  1  0
 17  8  1  0
M  END
>  <ID>  (791) 


>  <MOLENAME>  (791) 
SIROLIMUS

>  <therap>  (791) 
immunosuppressant, antineoplastic; rapamycin

>  <ref>  (791) 
Transplant Proc 35 Suppl 1:S1 (2003); Circulation 109:634 (2004)

>  <cas#>  (791) 
53123-88-9

>  <source>  (791) 
Streptomyces hygroscopicus; AY-22989, WY-090217

>  <status>  (791) 
USAN, INN, BAN

>  <tradename>  (791) 
RAPAMUNE

>  <SMILES>  (791) 
COC1CC2CCC(C)C(O)(O2)C(=O)C(=O)N2CCCCC2C(=O)OC(C(C)CC2CCC(O)C(OC)C2)CC(=O)C(C)/C=C(\C)C(O)C(OC)C(=O)C(C)CC(C)/C=C/C=C/C=C/1C

>  <standardized_failed>  (791) 
False

$$$$

     RDKit          2D

 25 27  0  0  0  0  0  0  0  0999 V2000
   -0.1958   -3.0417    0.0000 C   0  0  0  0  0  0  0  0  0  0  0  0
    0.5167   -3.4542    0.0000 C   0  0  0  0  0  0  0  0  0  0  0  0
    2.6625   -5.5167    0.0000 C   0  0  0  0  0  0  0  0  0  0  0  0
   -0.2000   -2.2167    0.0000 C   0  0  0  0  0  0  0  0  0  0  0  0
   -0.9833   -3.3042    0.0000 O   0  0  0  0  0  0  0  0  0  0  0  0
    2.6667   -4.6917    0.0000 C   0  0  0  0  0  0  0  0  0  0  0  0
   -0.9875   -1.9625    0.0000 O   0  0  0  0  0  0  0  0  0  0  0  0
    1.9500   -5.9250    0.0000 C   0  0  0  0  0  0  0  0  0  0  0  0
   -1.4750   -2.6375    0.0000 C   0  0  0  0  0  0  0  0  0  0  0  0
    4.0917   -4.6917    0.0000 N   0  0  0  0  0  0  0  0  0  0  0  0
    1.9500   -4.2792    0.0000 C   0  0  0  0  0  0  0  0  0  0  0  0
    1.2292   -3.0417    0.0000 C   0  0  0  0  0  0  0  0  0  0  0  0
    0.5167   -1.8042    0.0000 C   0  0  0  0  0  0  0  0  0  0  0  0
    1.9500   -3.4542    0.0000 O   0  0  0  0  0  0  0  0  0  0  0  0
    1.2375   -5.5125    0.0000 C   0  0  0  0  0  0  0  0  0  0  0  0
    1.9500   -6.7417    0.0000 C   0  0  0  0  0  0  0  0  0  0  0  0
    0.5167   -6.7417    0.0000 C   0  0  0  0  0  0  0  0  0  0  0  0
    1.2292   -2.2167    0.0000 C   0  0  0  0  0  0  0  0  0  0  0  0
    1.2417   -7.1625    0.0000 C   0  0  0  0  0  0  0  0  0  0  0  0
    0.5250   -5.9167    0.0000 C   0  0  0  0  0  0  0  0  0  0  0  0
    3.3750   -4.2750    0.0000 C   0  0  0  0  0  0  0  0  0  0  0  0
   -0.1958   -7.1542    0.0000 F   0  0  0  0  0  0  0  0  0  0  0  0
    5.0792   -3.2792    0.0000 Cl  0  0  0  0  0  0  0  0  0  0  0  0
    4.0917   -5.5167    0.0000 C   0  0  0  0  0  0  0  0  0  0  0  0
    3.3750   -5.9250    0.0000 C   0  0  0  0  0  0  0  0  0  0  0  0
  2  1  2  0
  3  6  1  0
  4  1  1  0
  5  1  1  0
  6 11  1  6
  7  4  1  0
  3  8  1  0
  9  5  1  0
 10 21  1  0
 11 14  1  0
 12  2  1  0
 13  4  2  0
 14 12  1  0
 15  8  2  0
 16  8  1  0
 17 19  1  0
 18 13  1  0
 19 16  2  0
 20 15  1  0
 21  6  1  0
 22 17  1  0
 24 10  1  0
  3 25  1  1
  7  9  1  0
 12 18  2  0
 25 24  1  0
 20 17  2  0
M  END
>  <ID>  (792) 


>  <MOLENAME>  (792) 
PAROXETINE HYDROCHLORIDE

>  <therap>  (792) 
antidepressant

>  <ref>  (792) 
Psychopharmacology 127:73 (1996);132:296 (1997);159:266 (2002); Br J Psychiatry 175:120 (1999)

>  <cas#>  (792) 
61869-08-7

>  <source>  (792) 
synthetic

>  <status>  (792) 
USP, INN, BAN

>  <tradename>  (792) 
PAXIL

>  <SMILES>  (792) 
Fc1ccc([C@@H]2CCNC[C@H]2COc2ccc3OCOc3c2)cc1

>  <standardized_failed>  (792) 
False

$$$$

     RDKit          2D

 21 22  0  0  0  0  0  0  0  0999 V2000
    3.0500   -0.8542    0.0000 C   0  0  0  0  0  0  0  0  0  0  0  0
    2.3500   -1.1792    0.0000 C   0  0  0  0  0  0  0  0  0  0  0  0
    3.7292   -1.2042    0.0000 C   0  0  0  0  0  0  0  0  0  0  0  0
    3.4042   -2.3750    0.0000 C   0  0  0  0  0  0  0  0  0  0  0  0
    2.6542   -2.3750    0.0000 C   0  0  0  0  0  0  0  0  0  0  0  0
    2.2125   -1.9000    0.0000 C   0  0  0  0  0  0  0  0  0  0  0  0
    3.8417   -1.9250    0.0000 C   0  0  0  0  0  0  0  0  0  0  0  0
    4.4167    1.4083    0.0000 N   0  0  0  0  0  0  0  0  0  0  0  0
    5.2417    0.5958    0.0000 Cl  0  0  0  0  0  0  0  0  0  0  0  0
    3.0667   -0.0917    0.0000 C   0  0  0  0  0  0  0  0  0  0  0  0
    4.2917   -0.7500    0.0000 C   0  0  0  0  0  0  0  0  0  0  0  0
    1.7917   -0.7042    0.0000 C   0  0  0  0  0  0  0  0  0  0  0  0
    1.5167   -2.1417    0.0000 C   0  0  0  0  0  0  0  0  0  0  0  0
    4.5250   -2.1875    0.0000 C   0  0  0  0  0  0  0  0  0  0  0  0
    3.7500    1.0458    0.0000 C   0  0  0  0  0  0  0  0  0  0  0  0
    4.4375    2.1708    0.0000 C   0  0  0  0  0  0  0  0  0  0  0  0
    3.7375    0.2750    0.0000 C   0  0  0  0  0  0  0  0  0  0  0  0
    4.9667   -1.0042    0.0000 C   0  0  0  0  0  0  0  0  0  0  0  0
    1.1042   -0.9417    0.0000 C   0  0  0  0  0  0  0  0  0  0  0  0
    0.9667   -1.6667    0.0000 C   0  0  0  0  0  0  0  0  0  0  0  0
    5.0917   -1.7250    0.0000 C   0  0  0  0  0  0  0  0  0  0  0  0
  2  1  1  0
  3  1  1  0
  4  7  1  0
  5  6  1  0
  6  2  2  0
  7  3  2  0
  8 15  1  0
 10  1  1  0
 11  3  1  0
 12  2  1  0
 13  6  1  0
 14  7  1  0
 15 17  1  0
 16  8  1  0
 17 10  1  0
 18 11  2  0
 19 12  2  0
 20 19  1  0
 21 18  1  0
  4  5  2  0
 21 14  2  0
 13 20  2  0
M  END
>  <ID>  (793) 


>  <MOLENAME>  (793) 
PROTRYPTYLINE HYDROCHLORIDE

>  <therap>  (793) 
antidepressant

>  <ref>  (793) 
J Med Chem 11:325 (1968); N Engl J Med 307:1037 (1982)

>  <cas#>  (793) 
1225-55-4

>  <source>  (793) 
synthetic; MK-240

>  <status>  (793) 
USP, INN, BAN

>  <tradename>  (793) 
VIVACTIL

>  <SMILES>  (793) 
CNCCCC1c2c(C=Cc3c1cccc3)cccc2

>  <standardized_failed>  (793) 
False

$$$$

     RDKit          2D

 10 10  0  0  0  0  0  0  0  0999 V2000
    1.8444   -2.7833    0.0000 C   0  0  0  0  0  0  0  0  0  0  0  0
    1.8432   -3.6107    0.0000 C   0  0  0  0  0  0  0  0  0  0  0  0
    2.5581   -4.0235    0.0000 C   0  0  0  0  0  0  0  0  0  0  0  0
    3.2745   -3.6102    0.0000 C   0  0  0  0  0  0  0  0  0  0  0  0
    3.2716   -2.7797    0.0000 C   0  0  0  0  0  0  0  0  0  0  0  0
    2.5563   -2.3705    0.0000 C   0  0  0  0  0  0  0  0  0  0  0  0
    3.9846   -2.3645    0.0000 C   0  0  0  0  0  0  0  0  0  0  0  0
    4.7006   -2.7743    0.0000 O   0  0  0  0  0  0  0  0  0  0  0  0
    3.9814   -1.5395    0.0000 O   0  0  0  0  0  0  0  0  0  0  0  0
    3.9896   -4.0216    0.0000 O   0  0  0  0  0  0  0  0  0  0  0  0
  2  3  2  0
  5  6  1  0
  6  1  2  0
  1  2  1  0
  5  7  1  0
  3  4  1  0
  7  8  1  0
  7  9  2  0
  4  5  2  0
  4 10  1  0
M  END
>  <ID>  (794) 


>  <MOLENAME>  (794) 
SALICYLIC ACID

>  <therap>  (794) 
keratolytic

>  <ref>  (794) 
nan

>  <cas#>  (794) 
69-72-7

>  <source>  (794) 
synthetic 

>  <status>  (794) 
USP, JAN

>  <tradename>  (794) 
STRI-DEX

>  <SMILES>  (794) 
O=C(O)c1c(O)cccc1

>  <standardized_failed>  (794) 
False

$$$$

     RDKit          2D

 16 16  0  0  0  0  0  0  0  0999 V2000
    4.7917   -1.0292    0.0000 C   0  0  0  0  0  0  0  0  0  0  0  0
    4.7917   -1.8542    0.0000 C   0  0  0  0  0  0  0  0  0  0  0  0
    4.0750   -2.2667    0.0000 C   0  0  0  0  0  0  0  0  0  0  0  0
    4.0750   -0.6167    0.0000 C   0  0  0  0  0  0  0  0  0  0  0  0
    3.3625   -1.8542    0.0000 C   0  0  0  0  0  0  0  0  0  0  0  0
    3.3625   -1.0292    0.0000 C   0  0  0  0  0  0  0  0  0  0  0  0
    5.5042   -0.6125    0.0000 C   0  0  0  0  0  0  0  0  0  0  0  0
    4.0750   -3.0917    0.0000 N   0  0  0  0  0  0  0  0  0  0  0  0
    3.3625   -3.5042    0.0000 C   0  0  0  0  0  0  0  0  0  0  0  0
    5.5000    0.2125    0.0000 O   0  0  0  0  0  0  0  0  0  0  0  0
    5.5042   -2.2667    0.0000 I   0  0  0  0  0  0  0  0  0  0  0  0
    2.6417   -3.0917    0.0000 O   0  0  0  0  0  0  0  0  0  0  0  0
    4.0667    0.2083    0.0000 I   0  0  0  0  0  0  0  0  0  0  0  0
    2.6417   -2.2667    0.0000 I   0  0  0  0  0  0  0  0  0  0  0  0
    6.2167   -1.0167    0.0000 O   0  0  0  0  0  0  0  0  0  0  0  0
    3.3625   -4.3292    0.0000 C   0  0  0  0  0  0  0  0  0  0  0  0
  2  1  2  0
  3  2  1  0
  4  1  1  0
  5  6  1  0
  6  4  2  0
  7  1  1  0
  8  3  1  0
  9  8  1  0
 10  7  2  0
 11  2  1  0
 12  9  2  0
 13  4  1  0
 14  5  1  0
 15  7  1  0
 16  9  1  0
  3  5  2  0
M  END
>  <ID>  (795) 


>  <MOLENAME>  (795) 
ACETRIAZOIC ACID

>  <therap>  (795) 
X-ray contrast medium

>  <ref>  (795) 
JACS 74: 4365 (1952); J Pharmacol Exp Therap 116: 394 (1956)

>  <cas#>  (795) 
85-36-9, 129-63-5 [acetrizoate sodium]

>  <source>  (795) 
synthetic

>  <status>  (795) 
USP

>  <tradename>  (795) 
SALPIX

>  <SMILES>  (795) 
CC(=O)Nc1c(I)cc(I)c(C(=O)O)c1I

>  <standardized_failed>  (795) 
False

$$$$

     RDKit          2D

 21 21  0  0  0  0  0  0  0  0999 V2000
    6.8375   -2.2625    0.0000 C   0  0  0  0  0  0  0  0  0  0  0  0
    7.5542   -2.6667    0.0000 C   0  0  0  0  0  0  0  0  0  0  0  0
    6.1250   -2.6792    0.0000 C   0  0  0  0  0  0  0  0  0  0  0  0
    6.8375   -1.4375    0.0000 C   0  0  0  0  0  0  0  0  0  0  0  0
    5.4125   -2.2667    0.0000 C   0  0  0  0  0  0  0  0  0  0  0  0
    6.1250   -3.5042    0.0000 C   0  0  0  0  0  0  0  0  0  0  0  0
    7.5500   -1.0167    0.0000 N   0  0  0  0  0  0  0  0  0  0  0  0
    8.2667   -3.0792    0.0000 O   0  0  0  0  0  0  0  0  0  0  0  0
    4.7000   -3.5042    0.0000 C   0  0  0  0  0  0  0  0  0  0  0  0
    4.7000   -2.6792    0.0000 C   0  0  0  0  0  0  0  0  0  0  0  0
    5.4125   -3.9167    0.0000 C   0  0  0  0  0  0  0  0  0  0  0  0
   10.1167   -1.6792    0.0000 Cl  0  0  0  0  0  0  0  0  0  0  0  0
    3.9792   -3.9167    0.0000 O   0  0  0  0  0  0  0  0  0  0  0  0
    8.2625   -2.2542    0.0000 C   0  0  0  0  0  0  0  0  0  0  0  0
    7.5542   -3.4917    0.0000 C   0  0  0  0  0  0  0  0  0  0  0  0
    7.5417   -0.1917    0.0000 C   0  0  0  0  0  0  0  0  0  0  0  0
    8.2625   -1.4292    0.0000 C   0  0  0  0  0  0  0  0  0  0  0  0
    3.2667   -3.4917    0.0000 C   0  0  0  0  0  0  0  0  0  0  0  0
    8.9792   -2.6667    0.0000 C   0  0  0  0  0  0  0  0  0  0  0  0
    8.2667   -3.9042    0.0000 C   0  0  0  0  0  0  0  0  0  0  0  0
    8.9792   -3.4917    0.0000 C   0  0  0  0  0  0  0  0  0  0  0  0
  2  1  1  0
  3  1  1  0
  4  1  1  0
  5  3  2  0
  6  3  1  0
  7  4  1  0
  8  2  1  0
  9 11  1  0
 10  5  1  0
 11  6  2  0
 13  9  1  0
 14  2  1  0
 15  2  1  0
 16  7  1  0
 17  7  1  0
 18 13  1  0
 19 14  1  0
 20 15  1  0
 21 19  1  0
  9 10  2  0
 20 21  1  0
M  END
>  <ID>  (796) 


>  <MOLENAME>  (796) 
VENLAFAXINE HYDROCHLORIDE

>  <therap>  (796) 
antidepressant

>  <ref>  (796) 
J Clin Psychiatry54:119 (1993); J Am Med Assoc 283:3082 (2000)

>  <cas#>  (796) 
99300-78-4, 93413-69-5 [venlafaxine]

>  <source>  (796) 
synthetic; WY-45030

>  <status>  (796) 
USAN, INN, BAN

>  <tradename>  (796) 
EFFEXOR

>  <SMILES>  (796) 
COc1ccc(C(CN(C)C)C2(O)CCCCC2)cc1

>  <standardized_failed>  (796) 
False

$$$$

     RDKit          2D

 20 20  0  0  0  0  0  0  0  0999 V2000
    6.0792   -1.1500    0.0000 C   0  0  0  0  0  0  0  0  0  0  0  0
    7.5083   -1.1500    0.0000 C   0  0  0  0  0  0  0  0  0  0  0  0
    6.7917    0.0917    0.0000 C   0  0  0  0  0  0  0  0  0  0  0  0
    7.5083   -0.3208    0.0000 C   0  0  0  0  0  0  0  0  0  0  0  0
    6.0792   -0.3250    0.0000 C   0  0  0  0  0  0  0  0  0  0  0  0
    6.7917   -1.5625    0.0000 C   0  0  0  0  0  0  0  0  0  0  0  0
    5.3667   -1.5542    0.0000 C   0  0  0  0  0  0  0  0  0  0  0  0
    8.2250   -1.5625    0.0000 C   0  0  0  0  0  0  0  0  0  0  0  0
    6.7875    0.9167    0.0000 N   0  0  0  0  0  0  0  0  0  0  0  0
    7.5042    1.3292    0.0000 C   0  0  0  0  0  0  0  0  0  0  0  0
    5.3625   -2.3792    0.0000 O   0  0  0  0  0  0  0  0  0  0  0  0
    8.2250   -2.3875    0.0000 O   0  0  0  0  0  0  0  0  0  0  0  0
    5.3667    0.0875    0.0000 I   0  0  0  0  0  0  0  0  0  0  0  0
    8.2208    0.0958    0.0000 I   0  0  0  0  0  0  0  0  0  0  0  0
    6.7917   -2.3875    0.0000 I   0  0  0  0  0  0  0  0  0  0  0  0
    7.5000    2.1542    0.0000 O   0  0  0  0  0  0  0  0  0  0  0  0
    4.6542   -1.1417    0.0000 N   0  0  0  0  0  0  0  0  0  0  0  0
    8.9375   -1.1458    0.0000 O   0  0  0  0  0  0  0  0  0  0  0  0
    8.2167    0.9208    0.0000 C   0  0  0  0  0  0  0  0  0  0  0  0
    3.9417   -1.5542    0.0000 C   0  0  0  0  0  0  0  0  0  0  0  0
  2  6  2  0
  3  5  1  0
  4  3  2  0
  5  1  2  0
  6  1  1  0
  7  1  1  0
  8  2  1  0
  9  3  1  0
 10  9  1  0
 11  7  2  0
 12  8  2  0
 13  5  1  0
 14  4  1  0
 15  6  1  0
 16 10  2  0
 17  7  1  0
 18  8  1  0
 19 10  1  0
 20 17  1  0
  4  2  1  0
M  END
>  <ID>  (797) 


>  <MOLENAME>  (797) 
IOTHALAMIC ACID

>  <therap>  (797) 
radiopaque agent

>  <ref>  (797) 
Curr. Opin. Nephrol. Hypertens. (1995), 4(6), 510-3; Exp. Mol. Pathol. (1963), 2665-80; J. Med. Chem. (1963), 6, 24-6

>  <cas#>  (797) 
2276-90-6

>  <source>  (797) 
synthetic; MI-216

>  <status>  (797) 
USP, INN, BAN, JAN

>  <tradename>  (797) 
CONRAY

>  <SMILES>  (797) 
CNC(=O)c1c(I)c(NC(C)=O)c(I)c(C(=O)O)c1I

>  <standardized_failed>  (797) 
False

$$$$

     RDKit          2D

 23 23  0  0  0  0  0  0  0  0999 V2000
    0.1500   -3.6125    0.0000 C   0  0  0  0  0  0  0  0  0  0  0  0
    0.8667   -3.2000    0.0000 C   0  0  0  0  0  0  0  0  0  0  0  0
    3.0042   -1.9542    0.0000 O   0  0  0  0  0  0  0  0  0  0  0  0
    3.7167   -2.3667    0.0000 C   0  0  0  0  0  0  0  0  0  0  0  0
   -0.5625   -3.2000    0.0000 F   0  0  0  0  0  0  0  0  0  0  0  0
    0.1500   -4.4375    0.0000 F   0  0  0  0  0  0  0  0  0  0  0  0
   -0.5708   -4.0167    0.0000 F   0  0  0  0  0  0  0  0  0  0  0  0
    3.7167   -3.1917    0.0000 C   0  0  0  0  0  0  0  0  0  0  0  0
    1.5792   -3.6125    0.0000 C   0  0  0  0  0  0  0  0  0  0  0  0
    0.8667   -2.3750    0.0000 C   0  0  0  0  0  0  0  0  0  0  0  0
    2.2917   -2.3667    0.0000 C   0  0  0  0  0  0  0  0  0  0  0  0
    4.4292   -1.9542    0.0000 C   0  0  0  0  0  0  0  0  0  0  0  0
    2.2917   -3.2000    0.0000 C   0  0  0  0  0  0  0  0  0  0  0  0
    1.5792   -1.9542    0.0000 C   0  0  0  0  0  0  0  0  0  0  0  0
    5.8542   -1.9500    0.0000 N   0  0  0  0  0  0  0  0  0  0  0  0
    7.7000   -3.0292    0.0000 Cl  0  0  0  0  0  0  0  0  0  0  0  0
    5.1417   -2.3625    0.0000 C   0  0  0  0  0  0  0  0  0  0  0  0
    4.4292   -3.5917    0.0000 C   0  0  0  0  0  0  0  0  0  0  0  0
    3.0042   -3.6000    0.0000 C   0  0  0  0  0  0  0  0  0  0  0  0
    6.5667   -2.3542    0.0000 C   0  0  0  0  0  0  0  0  0  0  0  0
    3.0042   -4.4250    0.0000 C   0  0  0  0  0  0  0  0  0  0  0  0
    4.4375   -4.4167    0.0000 C   0  0  0  0  0  0  0  0  0  0  0  0
    3.7167   -4.8375    0.0000 C   0  0  0  0  0  0  0  0  0  0  0  0
  2  1  1  0
  3 11  1  0
  4  3  1  0
  5  1  1  0
  6  1  1  0
  7  1  1  0
  8  4  1  0
  9  2  2  0
 10  2  1  0
 11 14  1  0
 12  4  1  0
 13  9  1  0
 14 10  2  0
 15 17  1  0
 17 12  1  0
 18  8  2  0
 19  8  1  0
 20 15  1  0
 21 19  2  0
 22 18  1  0
 23 22  2  0
 11 13  2  0
 21 23  1  0
M  END
>  <ID>  (798) 


>  <MOLENAME>  (798) 
FLUOXETINE

>  <therap>  (798) 
antidepressant

>  <ref>  (798) 
Clin Ther 19:1135 (1997); 21:615 (1999)

>  <cas#>  (798) 
54910-89-3

>  <source>  (798) 
synthetic; LY-110140

>  <status>  (798) 
USAN, INN, BAN

>  <tradename>  (798) 
PROZAC

>  <SMILES>  (798) 
CNCCC(Oc1ccc(C(F)(F)F)cc1)c1ccccc1

>  <standardized_failed>  (798) 
False

$$$$

     RDKit          2D

 27 29  0  0  0  0  0  0  0  0999 V2000
    3.8250   -1.4667    0.0000 C   0  0  0  0  0  0  0  0  0  0  0  0
    2.3917   -1.4667    0.0000 C   0  0  0  0  0  0  0  0  0  0  0  0
    3.1042   -1.0542    0.0000 C   0  0  0  0  0  0  0  0  0  0  0  0
    3.1042    0.2000    0.0000 C   0  0  0  0  0  0  0  0  0  0  0  0
    3.8167    0.6125    0.0000 C   0  0  0  0  0  0  0  0  0  0  0  0
    3.8250   -2.2917    0.0000 C   0  0  0  0  0  0  0  0  0  0  0  0
    2.3917   -2.2917    0.0000 C   0  0  0  0  0  0  0  0  0  0  0  0
    4.5375   -1.0542    0.0000 C   0  0  0  0  0  0  0  0  0  0  0  0
    3.1042   -2.7042    0.0000 N   0  0  0  0  0  0  0  0  0  0  0  0
    3.8125    1.4333    0.0000 C   0  0  0  0  0  0  0  0  0  0  0  0
    4.5917    0.3625    0.0000 N   0  0  0  0  0  0  0  0  0  0  0  0
    5.0750    1.0333    0.0000 O   0  0  0  0  0  0  0  0  0  0  0  0
    4.5917    1.6833    0.0000 N   0  0  0  0  0  0  0  0  0  0  0  0
    1.6792   -1.0542    0.0000 C   0  0  0  0  0  0  0  0  0  0  0  0
    5.2542   -1.4667    0.0000 O   0  0  0  0  0  0  0  0  0  0  0  0
    2.3917    0.6125    0.0000 C   0  0  0  0  0  0  0  0  0  0  0  0
    4.5500   -0.3750    0.0000 O   0  0  0  0  0  0  0  0  0  0  0  0
    2.3917    1.4375    0.0000 C   0  0  0  0  0  0  0  0  0  0  0  0
    3.1042    1.8458    0.0000 C   0  0  0  0  0  0  0  0  0  0  0  0
    1.6792   -0.3417    0.0000 O   0  0  0  0  0  0  0  0  0  0  0  0
    0.9667   -1.4667    0.0000 O   0  0  0  0  0  0  0  0  0  0  0  0
    1.6750   -2.7042    0.0000 C   0  0  0  0  0  0  0  0  0  0  0  0
    4.5375   -2.7042    0.0000 C   0  0  0  0  0  0  0  0  0  0  0  0
    5.9667   -1.0542    0.0000 C   0  0  0  0  0  0  0  0  0  0  0  0
    0.2542   -1.0500    0.0000 C   0  0  0  0  0  0  0  0  0  0  0  0
    5.9667   -0.2292    0.0000 C   0  0  0  0  0  0  0  0  0  0  0  0
    6.6792   -1.4667    0.0000 C   0  0  0  0  0  0  0  0  0  0  0  0
  2  3  1  0
  3  1  1  0
  4  3  1  0
  5  4  1  0
  6  1  2  0
  7  9  1  0
  8  1  1  0
  9  6  1  0
 10  5  1  0
 11  5  2  0
 12 11  1  0
 13 10  2  0
 14  2  1  0
 15  8  1  0
 16  4  2  0
 17  8  2  0
 18 16  1  0
 19 18  2  0
 20 14  2  0
 21 14  1  0
 22  7  1  0
 23  6  1  0
 24 15  1  0
 25 21  1  0
 26 24  1  0
 27 24  1  0
  7  2  2  0
 19 10  1  0
 12 13  1  0
M  END
>  <ID>  (799) 


>  <MOLENAME>  (799) 
ISRADIPINE

>  <therap>  (799) 
Ca channel blocker, antiparkisonian

>  <ref>  (799) 
Int J Neuropsychopharm 8:203 (2005); Eur J Med Res 11: 93 (2006); Nature 447:1081 (2007)

>  <cas#>  (799) 
75695-93-1

>  <source>  (799) 
synthetic; PN-200-110

>  <status>  (799) 
USP, INN, BAN

>  <tradename>  (799) 
DYNACIRC

>  <SMILES>  (799) 
COC(=O)C1=C(C)NC(C)=C(C(=O)OC(C)C)C1c1cccc2nonc12

>  <standardized_failed>  (799) 
False

$$$$

     RDKit          2D

 35 37  0  0  0  0  0  0  0  0999 V2000
    7.0542   -0.6042    0.0000 N   0  0  0  0  0  0  0  0  0  0  0  0
    6.2292   -0.6000    0.0000 C   0  0  0  0  0  0  0  0  0  0  0  0
    6.2292   -1.4250    0.0000 C   0  0  0  0  0  0  0  0  0  0  0  0
    7.0542   -1.4292    0.0000 C   0  0  0  0  0  0  0  0  0  0  0  0
    7.7625   -0.1917    0.0000 C   0  0  0  0  0  0  0  0  0  0  0  0
    7.7667    0.6333    0.0000 C   0  0  0  0  0  0  0  0  0  0  0  0
    5.6417   -2.0167    0.0000 N   0  0  0  0  0  0  0  0  0  0  0  0
    5.8625   -2.8167    0.0000 C   0  0  0  0  0  0  0  0  0  0  0  0
    5.2792   -3.4000    0.0000 C   0  0  0  0  0  0  0  0  0  0  0  0
    7.7667   -1.8417    0.0000 S   0  0  0  0  0  0  0  0  0  0  0  0
    8.4792   -0.6042    0.0000 C   0  0  0  0  0  0  0  0  0  0  0  0
    5.4917   -4.1917    0.0000 C   0  0  0  0  0  0  0  0  0  0  0  0
    8.4750    1.0458    0.0000 O   0  0  0  0  0  0  0  0  0  0  0  0
   10.6292   -0.1792    0.0000 C   0  0  0  0  0  0  0  0  0  0  0  0
    8.4875   -1.4167    0.0000 C   0  0  0  0  0  0  0  0  0  0  0  0
    4.4667   -3.2542    0.0000 N   0  0  0  0  0  0  0  0  0  0  0  0
    5.6375   -0.0167    0.0000 O   0  0  0  0  0  0  0  0  0  0  0  0
    9.1792    2.2833    0.0000 O   0  0  0  0  0  0  0  0  0  0  0  0
    8.4667    1.8708    0.0000 C   0  0  0  0  0  0  0  0  0  0  0  0
    9.1750    3.1083    0.0000 C   0  0  0  0  0  0  0  0  0  0  0  0
    4.9792   -4.8375    0.0000 O   0  0  0  0  0  0  0  0  0  0  0  0
    7.0542    1.0458    0.0000 O   0  0  0  0  0  0  0  0  0  0  0  0
    9.2000   -0.1875    0.0000 C   0  0  0  0  0  0  0  0  0  0  0  0
    6.6625   -3.0292    0.0000 O   0  0  0  0  0  0  0  0  0  0  0  0
    6.2667   -4.4875    0.0000 C   0  0  0  0  0  0  0  0  0  0  0  0
    9.9167   -0.5917    0.0000 O   0  0  0  0  0  0  0  0  0  0  0  0
   10.6250    0.6458    0.0000 O   0  0  0  0  0  0  0  0  0  0  0  0
    5.4292   -5.5292    0.0000 C   0  0  0  0  0  0  0  0  0  0  0  0
    6.2292   -5.3167    0.0000 C   0  0  0  0  0  0  0  0  0  0  0  0
    8.4542    3.5208    0.0000 O   0  0  0  0  0  0  0  0  0  0  0  0
   11.3417   -0.5917    0.0000 N   0  0  0  0  0  0  0  0  0  0  0  0
    3.9292   -3.8875    0.0000 O   0  0  0  0  0  0  0  0  0  0  0  0
    9.8875    3.5250    0.0000 C   0  0  0  0  0  0  0  0  0  0  0  0
    7.7542    2.2833    0.0000 C   0  0  0  0  0  0  0  0  0  0  0  0
    3.1167   -3.7375    0.0000 C   0  0  0  0  0  0  0  0  0  0  0  0
  2  1  1  0
  3  4  1  0
  4  1  1  0
  5  1  1  0
  6  5  1  0
  7  3  1  0
  8  7  1  0
  9  8  1  0
 10  4  1  0
 11  5  2  0
 12  9  1  0
 13  6  1  0
 14 26  1  0
 15 11  1  0
 16  9  2  0
 17  2  2  0
 18 19  1  0
 19 13  1  0
 20 18  1  0
 21 12  1  0
 22  6  2  0
 23 11  1  0
 24  8  2  0
 25 12  2  0
 26 23  1  0
 27 14  2  0
 28 21  1  0
 29 25  1  0
 30 20  2  0
 31 14  1  0
 32 16  1  0
 33 20  1  0
 34 19  1  0
 35 32  1  0
  2  3  1  0
 10 15  1  0
 28 29  2  0
M  END
>  <ID>  (800) 


>  <MOLENAME>  (800) 
CEFUROXIME AXETIL

>  <therap>  (800) 
antibacterial

>  <ref>  (800) 
Antimicrob Agents Chemother 9:511 (1976); 12:47 (1977); Drugs 17:233 (1979)

>  <cas#>  (800) 
64544-07-6, 55268-75-2 [cefuroxime]

>  <source>  (800) 
synthetic

>  <status>  (800) 
USP, BAN, JAN

>  <tradename>  (800) 
CEFTIN

>  <SMILES>  (800) 
CO/N=C(/C(=O)NC1C(=O)N2C(C(=O)OC(C)OC(C)=O)=C(COC(N)=O)CSC12)c1ccco1

>  <standardized_failed>  (800) 
False

$$$$

     RDKit          2D

 38 40  0  0  0  0  0  0  0  0999 V2000
   -0.0750   -3.8042    0.0000 C   0  0  0  0  0  0  0  0  0  0  0  0
    7.7750   -0.9292    0.0000 C   0  0  0  0  0  0  0  0  0  0  0  0
    8.4875   -0.5125    0.0000 C   0  0  0  0  0  0  0  0  0  0  0  0
    2.0667   -2.5750    0.0000 N   0  0  0  0  0  0  0  0  0  0  0  0
    7.0542   -1.3417    0.0000 C   0  0  0  0  0  0  0  0  0  0  0  0
    0.6417   -3.3917    0.0000 C   0  0  0  0  0  0  0  0  0  0  0  0
    5.6375   -2.1667    0.0000 C   0  0  0  0  0  0  0  0  0  0  0  0
    8.4792    0.3125    0.0000 O   0  0  0  0  0  0  0  0  0  0  0  0
   -0.0708   -4.6292    0.0000 C   0  0  0  0  0  0  0  0  0  0  0  0
   -0.7875   -3.3917    0.0000 C   0  0  0  0  0  0  0  0  0  0  0  0
    6.3417   -0.9292    0.0000 C   0  0  0  0  0  0  0  0  0  0  0  0
    7.0625   -2.1667    0.0000 C   0  0  0  0  0  0  0  0  0  0  0  0
    5.6292   -1.3417    0.0000 C   0  0  0  0  0  0  0  0  0  0  0  0
    6.3500   -2.5792    0.0000 C   0  0  0  0  0  0  0  0  0  0  0  0
    0.6500   -2.5667    0.0000 C   0  0  0  0  0  0  0  0  0  0  0  0
    1.3542   -3.8042    0.0000 C   0  0  0  0  0  0  0  0  0  0  0  0
    1.3625   -2.1625    0.0000 C   0  0  0  0  0  0  0  0  0  0  0  0
    2.0667   -3.4000    0.0000 C   0  0  0  0  0  0  0  0  0  0  0  0
   -0.7958   -4.2125    0.0000 O   0  0  0  0  0  0  0  0  0  0  0  0
    4.9250   -2.5792    0.0000 C   0  0  0  0  0  0  0  0  0  0  0  0
    9.2042   -0.9167    0.0000 O   0  0  0  0  0  0  0  0  0  0  0  0
    6.5167   -3.7417    0.0000 Cl  0  0  0  0  0  0  0  0  0  0  0  0
    2.7875   -2.1667    0.0000 C   0  0  0  0  0  0  0  0  0  0  0  0
    4.9167   -3.4042    0.0000 O   0  0  0  0  0  0  0  0  0  0  0  0
    8.4875   -1.3375    0.0000 C   0  0  0  0  0  0  0  0  0  0  0  0
    7.7667   -0.1042    0.0000 C   0  0  0  0  0  0  0  0  0  0  0  0
    3.5000   -2.5792    0.0000 C   0  0  0  0  0  0  0  0  0  0  0  0
    4.2125   -2.1667    0.0000 C   0  0  0  0  0  0  0  0  0  0  0  0
   -0.7958   -2.5625    0.0000 C   0  0  0  0  0  0  0  0  0  0  0  0
   -0.7875   -5.0417    0.0000 C   0  0  0  0  0  0  0  0  0  0  0  0
    0.6417   -5.0375    0.0000 C   0  0  0  0  0  0  0  0  0  0  0  0
   -1.5083   -3.8042    0.0000 C   0  0  0  0  0  0  0  0  0  0  0  0
   -0.7875   -5.8667    0.0000 C   0  0  0  0  0  0  0  0  0  0  0  0
    0.6417   -5.8542    0.0000 C   0  0  0  0  0  0  0  0  0  0  0  0
   -1.5083   -2.1542    0.0000 C   0  0  0  0  0  0  0  0  0  0  0  0
   -2.2208   -3.3917    0.0000 C   0  0  0  0  0  0  0  0  0  0  0  0
   -0.0708   -6.2750    0.0000 C   0  0  0  0  0  0  0  0  0  0  0  0
   -2.2208   -2.5667    0.0000 C   0  0  0  0  0  0  0  0  0  0  0  0
  2  5  1  0
  3  2  1  0
  4 18  1  0
  5 12  2  0
  6  1  1  0
  7 20  1  0
  8  3  2  0
  9  1  1  0
 10  1  1  0
 11 13  2  0
 12 14  1  0
 13  7  1  0
 14  7  2  0
 15  6  1  0
 16  6  1  0
 17 15  1  0
 18 16  1  0
 19  1  1  0
 20 28  1  0
 21  3  1  0
 23  4  1  0
 24 20  1  0
 25  2  1  0
 26  2  1  0
 27 23  1  0
 28 27  1  0
 29 10  2  0
 30  9  2  0
 31  9  1  0
 32 10  1  0
 33 30  1  0
 34 31  2  0
 35 29  1  0
 36 32  2  0
 37 34  1  0
 38 35  2  0
 17  4  1  0
 36 38  1  0
 33 37  2  0
  5 11  1  0
M  END
>  <ID>  (801) 


>  <MOLENAME>  (801) 
FEXOFENADINE HYDROCHLORIDE

>  <therap>  (801) 
nonsedating H1-antihistamine

>  <ref>  (801) 
Arzneim Forsch 46:153 (1996); J Allergy Clin Immunol 98:1062 (1996)

>  <cas#>  (801) 
138452-21-8

>  <source>  (801) 
synthetic; MDL-16455A

>  <status>  (801) 
USAN, INN, BAN

>  <tradename>  (801) 
ALLEGRA

>  <SMILES>  (801) 
CC(C)(C(=O)O)c1ccc(C(O)CCCN2CCC(C(O)(c3ccccc3)c3ccccc3)CC2)cc1

>  <standardized_failed>  (801) 
False

$$$$

     RDKit          2D

 20 21  0  0  0  0  0  0  0  0999 V2000
    4.2292   -2.4542    0.0000 N   0  0  0  0  0  0  0  0  0  0  0  0
    4.9500   -1.2167    0.0000 C   0  0  0  0  0  0  0  0  0  0  0  0
    3.5167   -2.0417    0.0000 C   0  0  0  0  0  0  0  0  0  0  0  0
    3.5167   -1.2167    0.0000 N   0  0  0  0  0  0  0  0  0  0  0  0
    4.2292   -3.2792    0.0000 C   0  0  0  0  0  0  0  0  0  0  0  0
    4.2292   -0.8042    0.0000 C   0  0  0  0  0  0  0  0  0  0  0  0
    4.9500   -2.0417    0.0000 C   0  0  0  0  0  0  0  0  0  0  0  0
    5.6625   -0.8000    0.0000 C   0  0  0  0  0  0  0  0  0  0  0  0
    4.9042   -3.7667    0.0000 O   0  0  0  0  0  0  0  0  0  0  0  0
    3.5667   -3.7667    0.0000 C   0  0  0  0  0  0  0  0  0  0  0  0
    4.6542   -4.5542    0.0000 C   0  0  0  0  0  0  0  0  0  0  0  0
    3.8292   -4.5542    0.0000 C   0  0  0  0  0  0  0  0  0  0  0  0
    2.8042   -2.4542    0.0000 O   0  0  0  0  0  0  0  0  0  0  0  0
    4.2292    0.0208    0.0000 O   0  0  0  0  0  0  0  0  0  0  0  0
    6.3792   -1.2042    0.0000 F   0  0  0  0  0  0  0  0  0  0  0  0
    5.6542    0.0250    0.0000 F   0  0  0  0  0  0  0  0  0  0  0  0
    6.3750   -0.3792    0.0000 F   0  0  0  0  0  0  0  0  0  0  0  0
    3.4250   -5.2167    0.0000 O   0  0  0  0  0  0  0  0  0  0  0  0
    5.1375   -5.2167    0.0000 C   0  0  0  0  0  0  0  0  0  0  0  0
    4.7167   -5.9292    0.0000 O   0  0  0  0  0  0  0  0  0  0  0  0
  2  7  2  0
  3  1  1  0
  4  3  1  0
  5  1  1  0
  6  2  1  0
  7  1  1  0
  8  2  1  0
  9  5  1  0
 10  5  1  0
 11  9  1  0
 12 10  1  0
 13  3  2  0
 14  6  2  0
 15  8  1  0
 16  8  1  0
 17  8  1  0
 12 18  1  1
 11 19  1  6
 20 19  1  0
  6  4  1  0
 11 12  1  0
M  END
>  <ID>  (802) 


>  <MOLENAME>  (802) 
TRIFLURIDINE

>  <therap>  (802) 
antiviral (opthalmic)

>  <ref>  (802) 
Invest Opthamol Visual Sci 17:1941 (1978); Arch Opthamol 96:1839 (1978); Drugs 23:329 (1982)

>  <cas#>  (802) 
70-00-8

>  <source>  (802) 
synthetic

>  <status>  (802) 
USP, INN

>  <tradename>  (802) 
VIROPTIC

>  <SMILES>  (802) 
O=c1[nH]c(=O)n(C2C[C@H](O)[C@@H](CO)O2)cc1C(F)(F)F

>  <standardized_failed>  (802) 
False

$$$$

     RDKit          2D

 15 12  0  0  0  0  0  0  0  0999 V2000
    4.2417   -4.8042    0.0000 Fe  0  0  0  0  0  6  0  0  0  0  0  0
    3.1917   -4.5000    0.0000 C   0  0  0  0  0  0  0  0  0  0  0  0
    3.6542   -5.3917    0.0000 C   0  0  0  0  0  0  0  0  0  0  0  0
    4.2417   -5.6292    0.0000 C   0  0  0  0  0  0  0  0  0  0  0  0
    4.8292   -5.3917    0.0000 C   0  0  0  0  0  0  0  0  0  0  0  0
    5.5917   -4.4625    0.0000 C   0  0  0  0  0  0  0  0  0  0  0  0
    4.2417   -3.9792    0.0000 N   0  0  0  0  0  0  0  0  0  0  0  0
    2.3917   -4.2792    0.0000 N   0  0  0  0  0  0  0  0  0  0  0  0
    3.0667   -5.9750    0.0000 N   0  0  0  0  0  0  0  0  0  0  0  0
    4.2375   -6.4542    0.0000 N   0  0  0  0  0  0  0  0  0  0  0  0
    5.4125   -5.9750    0.0000 N   0  0  0  0  0  0  0  0  0  0  0  0
    6.4000   -4.2750    0.0000 N   0  0  0  0  0  0  0  0  0  0  0  0
    4.2375   -3.1542    0.0000 O   0  0  0  0  0  0  0  0  0  0  0  0
    6.9000   -5.6167    0.0000 Na  0  0  0  0  0 15  0  0  0  0  0  0
    1.1250   -5.7417    0.0000 Na  0  0  0  0  0 15  0  0  0  0  0  0
  2  1  1  0
  3  1  1  0
  4  1  1  0
  5  1  1  0
  6  1  1  0
  7  1  1  0
  8  2  3  0
  9  3  3  0
 10  4  3  0
 11  5  3  0
 12  6  3  0
 13  7  2  0
M  CHG  3   1  -2  14   1  15   1
M  END
>  <ID>  (803) 


>  <MOLENAME>  (803) 
SODIUM NITROPRUSSIDE

>  <therap>  (803) 
antihypertensive

>  <ref>  (803) 
J Clin Pharmacol 14:494 (1974)

>  <cas#>  (803) 
13755-38-9

>  <source>  (803) 
synthetic

>  <status>  (803) 
USP

>  <tradename>  (803) 
NITROPRESS

>  <SMILES>  (803) 
N#C[Fe-2](C#N)(C#N)(C#N)(C#N)N=O.[Na+].[Na+]

>  <standardized_failed>  (803) 
True

$$$$

     RDKit          2D

 23 24  0  0  0  0  0  0  0  0999 V2000
    2.2792   -0.4292    0.0000 C   0  0  0  0  0  0  0  0  0  0  0  0
    1.5667   -0.0250    0.0000 C   0  0  0  0  0  0  0  0  0  0  0  0
    2.9917   -0.0167    0.0000 C   0  0  0  0  0  0  0  0  0  0  0  0
    0.8542   -0.4375    0.0000 C   0  0  0  0  0  0  0  0  0  0  0  0
    3.7042   -0.4292    0.0000 C   0  0  0  0  0  0  0  0  0  0  0  0
   -1.2875   -1.6792    0.0000 C   0  0  0  0  0  0  0  0  0  0  0  0
   -0.5708   -1.2667    0.0000 C   0  0  0  0  0  0  0  0  0  0  0  0
    1.5667    0.8000    0.0000 O   0  0  0  0  0  0  0  0  0  0  0  0
    2.9917    0.8083    0.0000 O   0  0  0  0  0  0  0  0  0  0  0  0
    0.1417   -0.0250    0.0000 C   0  0  0  0  0  0  0  0  0  0  0  0
    0.8542   -1.2667    0.0000 C   0  0  0  0  0  0  0  0  0  0  0  0
   -0.5708   -0.4375    0.0000 C   0  0  0  0  0  0  0  0  0  0  0  0
    0.1417   -1.6792    0.0000 C   0  0  0  0  0  0  0  0  0  0  0  0
    4.4125   -0.0167    0.0000 C   0  0  0  0  0  0  0  0  0  0  0  0
    3.7042   -1.2500    0.0000 C   0  0  0  0  0  0  0  0  0  0  0  0
    5.1292   -1.2417    0.0000 C   0  0  0  0  0  0  0  0  0  0  0  0
    4.4167   -1.6542    0.0000 C   0  0  0  0  0  0  0  0  0  0  0  0
    5.1250   -0.4167    0.0000 C   0  0  0  0  0  0  0  0  0  0  0  0
    5.8417   -1.6542    0.0000 O   0  0  0  0  0  0  0  0  0  0  0  0
   -2.0000   -1.2667    0.0000 C   0  0  0  0  0  0  0  0  0  0  0  0
   -1.2875   -2.5042    0.0000 C   0  0  0  0  0  0  0  0  0  0  0  0
   -2.0083   -2.0875    0.0000 C   0  0  0  0  0  0  0  0  0  0  0  0
    5.8375   -2.4792    0.0000 C   0  0  0  0  0  0  0  0  0  0  0  0
  2  1  1  0
  3  1  1  0
  4  2  1  0
  5  3  1  0
  6  7  1  0
  7 13  2  0
  8  2  2  0
  9  3  2  0
 10  4  1  0
 11  4  2  0
 12 10  2  0
 13 11  1  0
 14  5  2  0
 15  5  1  0
 16 17  1  0
 17 15  2  0
 18 14  1  0
 19 16  1  0
 20  6  1  0
 21  6  1  0
 22  6  1  0
 23 19  1  0
 18 16  2  0
  7 12  1  0
M  END
>  <ID>  (804) 


>  <MOLENAME>  (804) 
AVOBENZONE

>  <therap>  (804) 
sunscreen

>  <ref>  (804) 
J Am Acad Dermatol 15:494 (1986); 16:346 (1987); Int J Cosmet Sci 10:53 (1988)

>  <cas#>  (804) 
70356-09-1

>  <source>  (804) 
synthetic

>  <status>  (804) 
USP, INN

>  <tradename>  (804) 
PARSOL

>  <SMILES>  (804) 
COc1ccc(C(=O)CC(=O)c2ccc(C(C)(C)C)cc2)cc1

>  <standardized_failed>  (804) 
False

$$$$

     RDKit          2D

 45 49  0  0  0  0  0  0  0  0999 V2000
    9.0000   -1.3417    0.0000 C   0  0  0  0  0  0  0  0  0  0  0  0
    7.8042   -4.7667    0.0000 C   0  0  0  0  0  0  0  0  0  0  0  0
    8.4042   -3.7417    0.0000 C   0  0  0  0  0  0  0  0  0  0  0  0
    8.4125   -2.3750    0.0000 C   0  0  0  0  0  0  0  0  0  0  0  0
    7.8042   -4.0792    0.0000 C   0  0  0  0  0  0  0  0  0  0  0  0
    9.0042   -2.0292    0.0000 C   0  0  0  0  0  0  0  0  0  0  0  0
    4.3792   -3.2542    0.0000 C   0  0  0  0  0  0  0  0  0  0  0  0
    8.4042   -3.0625    0.0000 C   0  0  0  0  0  0  0  0  0  0  0  0
    8.4042   -1.0042    0.0000 C   0  0  0  0  0  0  0  0  0  0  0  0
    8.3917   -5.1125    0.0000 C   0  0  0  0  0  0  0  0  0  0  0  0
    9.5917   -0.9917    0.0000 C   0  0  0  0  0  0  0  0  0  0  0  0
    7.2042   -5.1042    0.0000 C   0  0  0  0  0  0  0  0  0  0  0  0
    5.0917   -2.8417    0.0000 N   0  0  0  0  0  0  0  0  0  0  0  0
    7.8167   -2.0292    0.0000 C   0  0  0  0  0  0  0  0  0  0  0  0
    8.9917   -4.0875    0.0000 C   0  0  0  0  0  0  0  0  0  0  0  0
    4.3792   -4.0792    0.0000 N   0  0  0  0  0  0  0  0  0  0  0  0
    3.6667   -2.8500    0.0000 C   0  0  0  0  0  0  0  0  0  0  0  0
    7.8167   -1.3500    0.0000 C   0  0  0  0  0  0  0  0  0  0  0  0
    8.9917   -4.7667    0.0000 C   0  0  0  0  0  0  0  0  0  0  0  0
    3.6667   -2.0250    0.0000 C   0  0  0  0  0  0  0  0  0  0  0  0
    9.5917   -0.3042    0.0000 O   0  0  0  0  0  0  0  0  0  0  0  0
    6.6167   -4.7542    0.0000 O   0  0  0  0  0  0  0  0  0  0  0  0
    9.6000   -2.3667    0.0000 O   0  0  0  0  0  0  0  0  0  0  0  0
    7.2125   -3.7375    0.0000 O   0  0  0  0  0  0  0  0  0  0  0  0
    2.9500   -1.6125    0.0000 C   0  0  0  0  0  0  0  0  0  0  0  0
   10.1875   -1.3292    0.0000 O   0  0  0  0  0  0  0  0  0  0  0  0
    7.2042   -5.7917    0.0000 O   0  0  0  0  0  0  0  0  0  0  0  0
    2.9500   -0.7792    0.0000 C   0  0  0  0  0  0  0  0  0  0  0  0
    2.2292   -0.3667    0.0000 C   0  0  0  0  0  0  0  0  0  0  0  0
    5.8042   -3.2542    0.0000 C   0  0  0  0  0  0  0  0  0  0  0  0
    5.0917   -4.4917    0.0000 C   0  0  0  0  0  0  0  0  0  0  0  0
    5.0917   -2.0167    0.0000 C   0  0  0  0  0  0  0  0  0  0  0  0
    2.2292    0.4583    0.0000 O   0  0  0  0  0  0  0  0  0  0  0  0
    5.8042   -4.0792    0.0000 C   0  0  0  0  0  0  0  0  0  0  0  0
    7.2167   -2.3792    0.0000 C   0  0  0  0  0  0  0  0  0  0  0  0
    9.5792   -3.7500    0.0000 C   0  0  0  0  0  0  0  0  0  0  0  0
    9.5792   -5.1042    0.0000 C   0  0  0  0  0  0  0  0  0  0  0  0
    7.2167   -1.0042    0.0000 C   0  0  0  0  0  0  0  0  0  0  0  0
    1.5167   -1.6125    0.0000 C   0  0  0  0  0  0  0  0  0  0  0  0
    2.2292   -2.0250    0.0000 C   0  0  0  0  0  0  0  0  0  0  0  0
    1.5167   -0.7875    0.0000 C   0  0  0  0  0  0  0  0  0  0  0  0
   10.1667   -4.0875    0.0000 C   0  0  0  0  0  0  0  0  0  0  0  0
    6.6292   -2.0375    0.0000 C   0  0  0  0  0  0  0  0  0  0  0  0
    6.6292   -1.3500    0.0000 C   0  0  0  0  0  0  0  0  0  0  0  0
   10.1667   -4.7667    0.0000 C   0  0  0  0  0  0  0  0  0  0  0  0
  2  5  2  0
  3  8  1  0
  4  6  1  0
  5  3  1  0
  6  1  2  0
  8  4  1  0
  9  1  1  0
 10 19  2  0
 11  1  1  0
 12  2  1  0
 13  7  1  0
 14 18  1  0
 15  3  2  0
 16  7  2  0
 17  7  1  0
 18  9  2  0
 19 15  1  0
 20 17  2  0
 21 11  2  0
 22 12  2  0
 23  6  1  0
 24  5  1  0
 25 20  1  0
 26 11  1  0
 27 12  1  0
 28 25  2  0
 29 28  1  0
 30 13  1  0
 31 16  1  0
 32 13  1  0
 33 29  1  0
 34 31  1  0
 35 14  1  0
 36 15  1  0
 37 19  1  0
 38 18  1  0
 39 40  2  0
 40 25  1  0
 41 39  1  0
 42 36  2  0
 43 35  2  0
 44 38  2  0
 45 37  2  0
  4 14  2  0
 43 44  1  0
 10  2  1  0
 45 42  1  0
 34 30  1  0
 41 29  2  0
M  END
>  <ID>  (805) 


>  <MOLENAME>  (805) 
OXANTEL PAMOATE

>  <therap>  (805) 
anthelmintic

>  <ref>  (805) 
Mol. Pharmacol. (2010), 78(4), 560-568; Int. J. Parasitol. (1991), 21(6), 697-702; Scand. J. Infect. Dis. (1982), 14(4), 297-9

>  <cas#>  (805) 
68813-55-8

>  <source>  (805) 
synthetic; CP-14445-16

>  <status>  (805) 
USAN, INN, BAN

>  <tradename>  (805) 
TELOPAR

>  <SMILES>  (805) 
CN1CCCN=C1/C=C/c1cc(O)ccc1

>  <standardized_failed>  (805) 
False

$$$$

     RDKit          2D

 20 21  0  0  0  0  0  0  0  0999 V2000
   -1.2083   -2.4042    0.0000 C   0  0  0  0  0  0  0  0  0  0  0  0
   -0.3833   -2.4042    0.0000 C   0  0  0  0  0  0  0  0  0  0  0  0
    1.2625   -2.4042    0.0000 C   0  0  0  0  0  0  0  0  0  0  0  0
   -1.6208   -3.1250    0.0000 N   0  0  0  0  0  0  0  0  0  0  0  0
    0.8500   -1.6917    0.0000 C   0  0  0  0  0  0  0  0  0  0  0  0
    0.8500   -3.1167    0.0000 C   0  0  0  0  0  0  0  0  0  0  0  0
    0.0250   -1.6917    0.0000 C   0  0  0  0  0  0  0  0  0  0  0  0
    0.0250   -3.1167    0.0000 C   0  0  0  0  0  0  0  0  0  0  0  0
   -1.6250   -1.6917    0.0000 O   0  0  0  0  0  0  0  0  0  0  0  0
   -2.4458   -4.5542    0.0000 O   0  0  0  0  0  0  0  0  0  0  0  0
    2.0875   -2.4042    0.0000 O   0  0  0  0  0  0  0  0  0  0  0  0
    1.2542   -0.9750    0.0000 O   0  0  0  0  0  0  0  0  0  0  0  0
    1.2542   -3.8292    0.0000 O   0  0  0  0  0  0  0  0  0  0  0  0
   -2.4458   -3.1250    0.0000 C   0  0  0  0  0  0  0  0  0  0  0  0
   -1.2000   -3.8375    0.0000 C   0  0  0  0  0  0  0  0  0  0  0  0
   -1.6208   -4.5542    0.0000 C   0  0  0  0  0  0  0  0  0  0  0  0
   -2.8500   -3.8375    0.0000 C   0  0  0  0  0  0  0  0  0  0  0  0
    2.4917   -3.1167    0.0000 C   0  0  0  0  0  0  0  0  0  0  0  0
    1.2542   -0.1500    0.0000 C   0  0  0  0  0  0  0  0  0  0  0  0
    0.8417   -4.5417    0.0000 C   0  0  0  0  0  0  0  0  0  0  0  0
  2  1  1  0
  3  6  2  0
  4  1  1  0
  5  7  2  0
  6  8  1  0
  7  2  1  0
  8  2  2  0
  9  1  2  0
 10 16  1  0
 11  3  1  0
 12  5  1  0
 13  6  1  0
 14  4  1  0
 15  4  1  0
 16 15  1  0
 17 14  1  0
 18 11  1  0
 19 12  1  0
 20 13  1  0
 10 17  1  0
  5  3  1  0
M  END
>  <ID>  (806) 


>  <MOLENAME>  (806) 
TRIMETOZINE

>  <therap>  (806) 
sedative, neurosedative

>  <ref>  (806) 
J Med Pharm Chem 5: 800 (1962)

>  <cas#>  (806) 
635-41-6

>  <source>  (806) 
synthetic; Abbott-22370, PS-2383

>  <status>  (806) 
USAN, INN

>  <tradename>  (806) 
nan

>  <SMILES>  (806) 
COc1cc(C(=O)N2CCOCC2)cc(OC)c1OC

>  <standardized_failed>  (806) 
False

$$$$

     RDKit          2D

 30 34  0  0  0  0  0  0  0  0999 V2000
    3.8042   -7.0042    0.0000 C   0  0  0  0  0  0  0  0  0  0  0  0
    7.3667   -1.7417    0.0000 C   0  0  0  0  0  0  0  0  0  0  0  0
    4.6250   -7.0125    0.0000 N   0  0  0  0  0  0  0  0  0  0  0  0
    6.8792   -2.4125    0.0000 N   0  0  0  0  0  0  0  0  0  0  0  0
    3.5417   -7.7875    0.0000 N   0  0  0  0  0  0  0  0  0  0  0  0
    6.8792   -1.0792    0.0000 N   0  0  0  0  0  0  0  0  0  0  0  0
    4.2000   -8.2667    0.0000 C   0  0  0  0  0  0  0  0  0  0  0  0
    4.8667   -7.7917    0.0000 C   0  0  0  0  0  0  0  0  0  0  0  0
    6.1000   -2.1542    0.0000 C   0  0  0  0  0  0  0  0  0  0  0  0
    6.1000   -1.3292    0.0000 C   0  0  0  0  0  0  0  0  0  0  0  0
    5.1792   -6.4042    0.0000 C   0  0  0  0  0  0  0  0  0  0  0  0
    4.2750   -9.0917    0.0000 C   0  0  0  0  0  0  0  0  0  0  0  0
    6.2792   -5.1917    0.0000 N   0  0  0  0  0  0  0  0  0  0  0  0
    3.3167   -6.3250    0.0000 O   0  0  0  0  0  0  0  0  0  0  0  0
    5.6167   -8.1417    0.0000 C   0  0  0  0  0  0  0  0  0  0  0  0
    8.1917   -1.7375    0.0000 O   0  0  0  0  0  0  0  0  0  0  0  0
    5.9625   -6.5875    0.0000 C   0  0  0  0  0  0  0  0  0  0  0  0
    4.9292   -5.6250    0.0000 C   0  0  0  0  0  0  0  0  0  0  0  0
    5.4792   -5.0167    0.0000 C   0  0  0  0  0  0  0  0  0  0  0  0
    6.5250   -5.9792    0.0000 C   0  0  0  0  0  0  0  0  0  0  0  0
    5.0250   -9.4417    0.0000 C   0  0  0  0  0  0  0  0  0  0  0  0
    7.1375   -3.2000    0.0000 C   0  0  0  0  0  0  0  0  0  0  0  0
    6.5792   -3.8042    0.0000 C   0  0  0  0  0  0  0  0  0  0  0  0
    5.6917   -8.9667    0.0000 C   0  0  0  0  0  0  0  0  0  0  0  0
    6.8292   -4.5917    0.0000 C   0  0  0  0  0  0  0  0  0  0  0  0
    5.0917  -10.2625    0.0000 Cl  0  0  0  0  0  0  0  0  0  0  0  0
    5.3875   -2.5667    0.0000 C   0  0  0  0  0  0  0  0  0  0  0  0
    5.3875   -0.9167    0.0000 C   0  0  0  0  0  0  0  0  0  0  0  0
    4.6667   -2.1542    0.0000 C   0  0  0  0  0  0  0  0  0  0  0  0
    4.6667   -1.3292    0.0000 C   0  0  0  0  0  0  0  0  0  0  0  0
  2  4  1  0
  3  1  1  0
  4 22  1  0
  5  1  1  0
  6  2  1  0
  7  5  1  0
  8  3  1  0
  9  4  1  0
 10  9  2  0
 11  3  1  0
 12  7  2  0
 13 19  1  0
 14  1  2  0
 15  8  2  0
 16  2  2  0
 17 11  1  0
 18 11  1  0
 19 18  1  0
 20 17  1  0
 21 12  1  0
 22 23  1  0
 23 25  1  0
 24 15  1  0
 25 13  1  0
 26 21  1  0
 27  9  1  0
 28 10  1  0
 29 27  2  0
 30 29  1  0
  8  7  1  0
 13 20  1  0
 24 21  2  0
  6 10  1  0
 30 28  2  0
M  END
>  <ID>  (807) 


>  <MOLENAME>  (807) 
DOMPERIDONE

>  <therap>  (807) 
antiemetic, dopamine antagonist

>  <ref>  (807) 
Biochem. Pharmacol. (1979), 28(14), 2161-5; J. Pharm. Pharmacol. (1979), 31(5), 344-7; Naunyn-Schmiedeberg's Arch. Pharmacol. (1980), 315(2), 89-102

>  <cas#>  (807) 
57808-66-9

>  <source>  (807) 
synthetic; R-33812

>  <status>  (807) 
USAN, INN, BAN, JAN

>  <tradename>  (807) 
MOTILIUM

>  <SMILES>  (807) 
O=c1[nH]c2c(cccc2)n1CCCN1CCC(n2c(=O)[nH]c3cc(Cl)ccc32)CC1

>  <standardized_failed>  (807) 
False

$$$$

     RDKit          2D

  5  3  0  0  0  0  0  0  0  0999 V2000
    4.3125   -1.3000    0.0000 S   0  0  0  0  0  0  0  0  0  0  0  0
    0.2750   -1.3667    0.0000 Cl  0  0  0  0  0  0  0  0  0  0  0  0
    2.1750   -1.7167    0.0000 N   0  0  0  0  0  0  0  0  0  0  0  0
    3.6000   -1.7125    0.0000 C   0  0  0  0  0  0  0  0  0  0  0  0
    2.8875   -1.3042    0.0000 C   0  0  0  0  0  0  0  0  0  0  0  0
  3  5  1  0
  4  1  1  0
  5  4  1  0
M  END
>  <ID>  (808) 


>  <MOLENAME>  (808) 
CYSTEAMINE HYDROCHLORIDE

>  <therap>  (808) 
antiurolithic, depigmentation, radiation protectant

>  <ref>  (808) 
Prog. Neuro-Psychopharmacol. Biol. Psychiatry (2011), 35(2), 380-389; Expert Opin. Pharmacother. (2004), 5(11), 2255-2262; Mamm. Genome (2011), 22(7-8), 486-94

>  <cas#>  (808) 
60-23-1

>  <source>  (808) 
cysteamine; CL-9148

>  <status>  (808) 
USAN, INN, BAN

>  <tradename>  (808) 
nan

>  <SMILES>  (808) 
NCCS

>  <standardized_failed>  (808) 
False

$$$$

     RDKit          2D

 22 24  0  0  0  0  0  0  0  0999 V2000
    2.2417   -3.0792    0.0000 S   0  0  0  0  0  0  0  0  0  0  0  0
    4.6000   -0.0500    0.0000 C   0  0  0  0  0  0  0  0  0  0  0  0
    4.6875   -0.8667    0.0000 C   0  0  0  0  0  0  0  0  0  0  0  0
    5.3542    0.2875    0.0000 C   0  0  0  0  0  0  0  0  0  0  0  0
    5.9042   -0.3250    0.0000 O   0  0  0  0  0  0  0  0  0  0  0  0
    5.4917   -1.0417    0.0000 C   0  0  0  0  0  0  0  0  0  0  0  0
    2.8542   -2.5250    0.0000 C   0  0  0  0  0  0  0  0  0  0  0  0
    4.0750   -1.4250    0.0000 C   0  0  0  0  0  0  0  0  0  0  0  0
    1.4542   -2.8250    0.0000 O   0  0  0  0  0  0  0  0  0  0  0  0
    2.4167   -3.8875    0.0000 O   0  0  0  0  0  0  0  0  0  0  0  0
    3.8875    0.3583    0.0000 C   0  0  0  0  0  0  0  0  0  0  0  0
    5.5250    1.0958    0.0000 O   0  0  0  0  0  0  0  0  0  0  0  0
    2.6792   -1.7167    0.0000 C   0  0  0  0  0  0  0  0  0  0  0  0
    3.6417   -2.7792    0.0000 C   0  0  0  0  0  0  0  0  0  0  0  0
    3.2917   -1.1667    0.0000 C   0  0  0  0  0  0  0  0  0  0  0  0
    4.2500   -2.2250    0.0000 C   0  0  0  0  0  0  0  0  0  0  0  0
    1.6542   -3.6625    0.0000 C   0  0  0  0  0  0  0  0  0  0  0  0
    3.1667   -0.0542    0.0000 C   0  0  0  0  0  0  0  0  0  0  0  0
    3.8875    1.1875    0.0000 C   0  0  0  0  0  0  0  0  0  0  0  0
    2.4542    0.3583    0.0000 C   0  0  0  0  0  0  0  0  0  0  0  0
    3.1667    1.6000    0.0000 C   0  0  0  0  0  0  0  0  0  0  0  0
    2.4542    1.1875    0.0000 C   0  0  0  0  0  0  0  0  0  0  0  0
  2  3  2  0
  3  8  1  0
  4  2  1  0
  5  6  1  0
  6  3  1  0
  7  1  1  0
  8 16  1  0
  9  1  2  0
 10  1  2  0
 11  2  1  0
 12  4  2  0
 13  7  2  0
 14  7  1  0
 15 13  1  0
 16 14  2  0
 17  1  1  0
 18 11  2  0
 19 11  1  0
 20 18  1  0
 21 19  2  0
 22 21  1  0
 15  8  2  0
  4  5  1  0
 20 22  2  0
M  END
>  <ID>  (809) 


>  <MOLENAME>  (809) 
ROFECOXIB

>  <therap>  (809) 
COX2 inhibitor, antiinflammatory, antiarthritic

>  <ref>  (809) 
JAMA 186:954 (2001)

>  <cas#>  (809) 
162011-90-7

>  <source>  (809) 
synthetic; MK-0966

>  <status>  (809) 
USAN, INN, BAN

>  <tradename>  (809) 
VIOXX

>  <SMILES>  (809) 
CS(=O)(=O)c1ccc(C2=C(c3ccccc3)C(=O)OC2)cc1

>  <standardized_failed>  (809) 
False

$$$$

     RDKit          2D

 30 32  0  0  0  0  0  0  0  0999 V2000
    3.7500   -4.4167    0.0000 C   0  0  0  0  0  0  0  0  0  0  0  0
    3.7542   -3.5917    0.0000 C   0  0  0  0  0  0  0  0  0  0  0  0
    3.0417   -3.1750    0.0000 C   0  0  0  0  0  0  0  0  0  0  0  0
    2.3292   -1.9375    0.0000 C   0  0  0  0  0  0  0  0  0  0  0  0
    5.9375    0.0958    0.0000 C   0  0  0  0  0  0  0  0  0  0  0  0
    4.4625   -4.8292    0.0000 C   0  0  0  0  0  0  0  0  0  0  0  0
    3.0417   -2.3500    0.0000 O   0  0  0  0  0  0  0  0  0  0  0  0
    3.0417   -4.8250    0.0000 C   0  0  0  0  0  0  0  0  0  0  0  0
    4.4667   -3.1792    0.0000 C   0  0  0  0  0  0  0  0  0  0  0  0
    5.9250   -0.7250    0.0000 O   0  0  0  0  0  0  0  0  0  0  0  0
    5.1792   -4.4167    0.0000 C   0  0  0  0  0  0  0  0  0  0  0  0
    5.2292    0.5208    0.0000 C   0  0  0  0  0  0  0  0  0  0  0  0
    2.3292   -1.1125    0.0000 C   0  0  0  0  0  0  0  0  0  0  0  0
    4.4750   -2.3542    0.0000 C   0  0  0  0  0  0  0  0  0  0  0  0
    2.3292   -3.5917    0.0000 C   0  0  0  0  0  0  0  0  0  0  0  0
    5.1750   -3.6000    0.0000 C   0  0  0  0  0  0  0  0  0  0  0  0
    5.2042   -1.1250    0.0000 C   0  0  0  0  0  0  0  0  0  0  0  0
    1.6125   -2.3500    0.0000 O   0  0  0  0  0  0  0  0  0  0  0  0
    4.5042    0.1208    0.0000 C   0  0  0  0  0  0  0  0  0  0  0  0
    6.6542    0.4958    0.0000 O   0  0  0  0  0  0  0  0  0  0  0  0
    2.3292   -4.4167    0.0000 C   0  0  0  0  0  0  0  0  0  0  0  0
    4.4917   -0.7042    0.0000 C   0  0  0  0  0  0  0  0  0  0  0  0
    5.1917   -1.9500    0.0000 C   0  0  0  0  0  0  0  0  0  0  0  0
    3.8000    0.5458    0.0000 O   0  0  0  0  0  0  0  0  0  0  0  0
    1.6125   -0.7000    0.0000 C   0  0  0  0  0  0  0  0  0  0  0  0
    2.7375   -0.3917    0.0000 C   0  0  0  0  0  0  0  0  0  0  0  0
    3.1250   -1.3250    0.0000 C   0  0  0  0  0  0  0  0  0  0  0  0
    5.8917   -3.1917    0.0000 C   0  0  0  0  0  0  0  0  0  0  0  0
    1.6167   -4.8292    0.0000 C   0  0  0  0  0  0  0  0  0  0  0  0
    1.6125    0.1250    0.0000 C   0  0  0  0  0  0  0  0  0  0  0  0
  2  1  1  6
  3  2  1  0
  4  7  1  0
  5 10  1  0
  6  1  1  0
  3  7  1  6
  8  1  2  0
  2  9  1  0
 10 17  1  0
 11  6  2  0
 12 19  1  0
 13  4  1  0
  9 14  1  1
 15 21  1  0
 16 11  1  0
 17 23  1  6
 18  4  2  0
 19 22  1  0
 20  5  2  0
 21  8  1  0
 22 17  1  0
 23 14  1  0
 19 24  1  1
 25 13  1  0
 26 13  1  0
 27 13  1  0
 16 28  1  1
 21 29  1  6
 30 25  1  0
 15  3  1  0
 16  9  1  0
 12  5  1  0
M  END
>  <ID>  (810) 


>  <MOLENAME>  (810) 
SIMVASTATIN

>  <therap>  (810) 
antihyperlipidemic, HMGCoA reductase inhibitor

>  <ref>  (810) 
Anal Profiles Drug Subs Excip 22:359 (1993); Clin Cardiol 23:39 (2000); Am J Cardiol 86:406 (2000)

>  <cas#>  (810) 
79902-63-9

>  <source>  (810) 
synthetic; MK-733

>  <status>  (810) 
USP, INN, BAN

>  <tradename>  (810) 
ZOCOR

>  <SMILES>  (810) 
CCC(C)(C)C(=O)O[C@H]1C[C@@H](C)C=C2C=C[C@H](C)[C@H](CC[C@@H]3C[C@@H](O)CC(=O)O3)[C@H]21

>  <standardized_failed>  (810) 
False

$$$$

     RDKit          2D

 19 21  0  0  0  0  0  0  0  0999 V2000
    2.4042    0.9708    0.0000 N   0  0  0  0  0  0  0  0  0  0  0  0
    1.8875    0.4708    0.0000 C   0  0  0  0  0  0  0  0  0  0  0  0
    1.8875   -0.3542    0.0000 C   0  0  0  0  0  0  0  0  0  0  0  0
    2.1750    1.7583    0.0000 C   0  0  0  0  0  0  0  0  0  0  0  0
    3.2125    0.8208    0.0000 C   0  0  0  0  0  0  0  0  0  0  0  0
    2.5167   -0.8417    0.0000 C   0  0  0  0  0  0  0  0  0  0  0  0
    3.6167    0.1083    0.0000 C   0  0  0  0  0  0  0  0  0  0  0  0
    3.3625   -0.5917    0.0000 C   0  0  0  0  0  0  0  0  0  0  0  0
    2.7417    2.3583    0.0000 O   0  0  0  0  0  0  0  0  0  0  0  0
    2.3750   -1.6500    0.0000 O   0  0  0  0  0  0  0  0  0  0  0  0
    1.3667    1.9583    0.0000 N   0  0  0  0  0  0  0  0  0  0  0  0
    1.1667    0.8833    0.0000 C   0  0  0  0  0  0  0  0  0  0  0  0
    1.1667   -0.7667    0.0000 C   0  0  0  0  0  0  0  0  0  0  0  0
    3.6167    1.5208    0.0000 C   0  0  0  0  0  0  0  0  0  0  0  0
    4.4292    0.1083    0.0000 C   0  0  0  0  0  0  0  0  0  0  0  0
    0.4542    0.4708    0.0000 C   0  0  0  0  0  0  0  0  0  0  0  0
    0.4542   -0.3542    0.0000 C   0  0  0  0  0  0  0  0  0  0  0  0
    4.4292    1.5208    0.0000 C   0  0  0  0  0  0  0  0  0  0  0  0
    4.8417    0.8083    0.0000 C   0  0  0  0  0  0  0  0  0  0  0  0
  2  1  1  0
  3  2  2  0
  4  1  1  0
  5  1  1  0
  6  3  1  0
  7  5  2  0
  8  7  1  0
  9  4  2  0
 10  6  2  0
 11  4  1  0
 12  2  1  0
 13  3  1  0
 14  5  1  0
 15  7  1  0
 16 12  2  0
 17 16  1  0
 18 14  2  0
 19 18  1  0
  8  6  1  0
 19 15  2  0
 17 13  2  0
M  END
>  <ID>  (811) 


>  <MOLENAME>  (811) 
OXCARBAZEPINE

>  <therap>  (811) 
antipsychotic

>  <ref>  (811) 
Expert Opin. Invest. Drugs (2007), 16(10), 1615-1625; Drugs (1992), 43(6), 873-88; Epilepsia (1987), 28(6), 693-8

>  <cas#>  (811) 
28721-07-5

>  <source>  (811) 
synthetic; GP-47680, KIN-493

>  <status>  (811) 
USAN, INN, BAN

>  <tradename>  (811) 
TRILEPTAL

>  <SMILES>  (811) 
NC(=O)N1c2c(cccc2)CC(=O)c2c1cccc2

>  <standardized_failed>  (811) 
False

$$$$

     RDKit          2D

 24 25  0  0  0  0  0  0  0  0999 V2000
    4.2542   -1.3500    0.0000 S   0  0  0  0  0  0  0  0  0  0  0  0
    4.9667   -1.7542    0.0000 N   0  0  0  0  0  0  0  0  0  0  0  0
    4.9792   -2.5875    0.0000 C   0  0  0  0  0  0  0  0  0  0  0  0
    4.2542   -3.0042    0.0000 C   0  0  0  0  0  0  0  0  0  0  0  0
    5.6917   -2.9917    0.0000 C   0  0  0  0  0  0  0  0  0  0  0  0
    3.5417   -1.7667    0.0000 C   0  0  0  0  0  0  0  0  0  0  0  0
    3.5417   -2.5917    0.0000 C   0  0  0  0  0  0  0  0  0  0  0  0
    7.1167   -2.9917    0.0000 C   0  0  0  0  0  0  0  0  0  0  0  0
    6.4042   -2.5792    0.0000 N   0  0  0  0  0  0  0  0  0  0  0  0
    7.2042   -3.8125    0.0000 N   0  0  0  0  0  0  0  0  0  0  0  0
    7.8667   -2.6500    0.0000 S   0  0  0  0  0  0  0  0  0  0  0  0
    3.6667   -0.7625    0.0000 O   0  0  0  0  0  0  0  0  0  0  0  0
    4.8417   -0.7625    0.0000 O   0  0  0  0  0  0  0  0  0  0  0  0
    8.0167   -3.9792    0.0000 C   0  0  0  0  0  0  0  0  0  0  0  0
    8.4292   -3.2625    0.0000 C   0  0  0  0  0  0  0  0  0  0  0  0
    4.2542   -3.8292    0.0000 O   0  0  0  0  0  0  0  0  0  0  0  0
    5.6917   -3.8167    0.0000 O   0  0  0  0  0  0  0  0  0  0  0  0
    5.6792   -1.3417    0.0000 C   0  0  0  0  0  0  0  0  0  0  0  0
    2.8292   -3.0042    0.0000 C   0  0  0  0  0  0  0  0  0  0  0  0
    2.8292   -1.3542    0.0000 C   0  0  0  0  0  0  0  0  0  0  0  0
    2.8042   -4.1167    0.0000 Na  0  0  0  0  0 15  0  0  0  0  0  0
    9.2417   -3.1750    0.0000 C   0  0  0  0  0  0  0  0  0  0  0  0
    2.1167   -2.5917    0.0000 C   0  0  0  0  0  0  0  0  0  0  0  0
    2.1167   -1.7667    0.0000 C   0  0  0  0  0  0  0  0  0  0  0  0
  2  1  1  0
  3  2  1  0
  4  7  1  0
  5  3  1  0
  6  1  1  0
  7  6  2  0
  8  9  1  0
  9  5  1  0
 10  8  2  0
 11  8  1  0
 12  1  2  0
 13  1  2  0
 14 10  1  0
 15 11  1  0
 16  4  1  0
 17  5  2  0
 18  2  1  0
 19  7  1  0
 20  6  1  0
 22 15  1  0
 23 24  1  0
 24 20  2  0
  3  4  2  0
 19 23  2  0
 15 14  2  0
M  CHG  2  16  -1  21   1
M  END
>  <ID>  (812) 


>  <MOLENAME>  (812) 
MELOXICAM SODIUM

>  <therap>  (812) 
antiinflammatory

>  <ref>  (812) 
Neuropharmacol 39:1653 (2000)

>  <cas#>  (812) 
71125-38-7

>  <source>  (812) 
synthetic; UH-AC-62XX

>  <status>  (812) 
USAN, INN, BAN

>  <tradename>  (812) 
MOBIC

>  <SMILES>  (812) 
Cc1cnc(NC(=O)C2=C(O)c3c(cccc3)S(=O)(=O)N2C)s1

>  <standardized_failed>  (812) 
False

$$$$

     RDKit          2D

 30 33  0  0  0  0  0  0  0  0999 V2000
    4.4792   -6.9125    0.0000 N   0  0  0  0  0  0  0  0  0  0  0  0
    4.4792   -5.5500    0.0000 C   0  0  0  0  0  0  0  0  0  0  0  0
    4.9667   -6.2292    0.0000 C   0  0  0  0  0  0  0  0  0  0  0  0
    3.6875   -5.8125    0.0000 C   0  0  0  0  0  0  0  0  0  0  0  0
    3.6875   -6.6417    0.0000 C   0  0  0  0  0  0  0  0  0  0  0  0
    4.8167   -4.8000    0.0000 C   0  0  0  0  0  0  0  0  0  0  0  0
    4.3292   -4.1250    0.0000 O   0  0  0  0  0  0  0  0  0  0  0  0
   10.4917   -3.6917    0.0000 C   0  0  0  0  0  0  0  0  0  0  0  0
    9.7750   -3.2750    0.0000 C   0  0  0  0  0  0  0  0  0  0  0  0
    4.6542   -3.3625    0.0000 C   0  0  0  0  0  0  0  0  0  0  0  0
    5.4750   -3.2750    0.0000 C   0  0  0  0  0  0  0  0  0  0  0  0
    5.8000   -6.1417    0.0000 C   0  0  0  0  0  0  0  0  0  0  0  0
    6.9042   -3.2750    0.0000 N   0  0  0  0  0  0  0  0  0  0  0  0
   10.4917   -4.5250    0.0000 O   0  0  0  0  0  0  0  0  0  0  0  0
    9.0542   -3.6917    0.0000 O   0  0  0  0  0  0  0  0  0  0  0  0
    5.4750   -2.4500    0.0000 O   0  0  0  0  0  0  0  0  0  0  0  0
    2.9625   -5.4000    0.0000 C   0  0  0  0  0  0  0  0  0  0  0  0
    2.9625   -7.0625    0.0000 C   0  0  0  0  0  0  0  0  0  0  0  0
    6.1375   -5.3792    0.0000 C   0  0  0  0  0  0  0  0  0  0  0  0
    5.6417   -4.7125    0.0000 C   0  0  0  0  0  0  0  0  0  0  0  0
    6.1917   -3.6917    0.0000 C   0  0  0  0  0  0  0  0  0  0  0  0
    9.7750   -2.4625    0.0000 C   0  0  0  0  0  0  0  0  0  0  0  0
   11.2000   -3.2750    0.0000 C   0  0  0  0  0  0  0  0  0  0  0  0
    7.6250   -3.6917    0.0000 C   0  0  0  0  0  0  0  0  0  0  0  0
    8.3417   -3.2750    0.0000 C   0  0  0  0  0  0  0  0  0  0  0  0
    9.7750   -4.9375    0.0000 C   0  0  0  0  0  0  0  0  0  0  0  0
    2.2500   -5.8125    0.0000 C   0  0  0  0  0  0  0  0  0  0  0  0
    2.2500   -6.6417    0.0000 C   0  0  0  0  0  0  0  0  0  0  0  0
   10.4792   -2.0500    0.0000 C   0  0  0  0  0  0  0  0  0  0  0  0
   11.2000   -2.4625    0.0000 C   0  0  0  0  0  0  0  0  0  0  0  0
  2  3  2  0
  3  1  1  0
  4  5  2  0
  5  1  1  0
  6  2  1  0
  7  6  1  0
  8  9  2  0
  9 15  1  0
 10  7  1  0
 11 10  1  0
 12  3  1  0
 13 21  1  0
 14  8  1  0
 15 25  1  0
 16 11  1  0
 17  4  1  0
 18  5  1  0
 19 12  2  0
 20 19  1  0
 21 11  1  0
 22  9  1  0
 23  8  1  0
 24 13  1  0
 25 24  1  0
 26 14  1  0
 27 28  1  0
 28 18  2  0
 29 22  2  0
 30 29  1  0
  4  2  1  0
 17 27  2  0
  6 20  2  0
 23 30  2  0
M  END
>  <ID>  (813) 


>  <MOLENAME>  (813) 
CARVEDILOL

>  <therap>  (813) 
beta-adrenergic blocker

>  <ref>  (813) 
Arzneim Forsch 40:735 (1990); N Engl J Med 334:1349 (1996); 339:1759 (1998)

>  <cas#>  (813) 
72956-09-3

>  <source>  (813) 
synthetic; BM-14190

>  <status>  (813) 
USAN, INN, BAN, JAN

>  <tradename>  (813) 
COREG

>  <SMILES>  (813) 
COc1c(OCCNCC(O)COc2cccc3c2c2c(cccc2)[nH]3)cccc1

>  <standardized_failed>  (813) 
False

$$$$

     RDKit          2D

 32 36  0  0  0  0  0  0  0  0999 V2000
    1.0375    0.9083    0.0000 N   0  0  0  0  0  0  0  0  0  0  0  0
    1.2917    1.6958    0.0000 C   0  0  0  0  0  0  0  0  0  0  0  0
   -0.0375    1.6958    0.0000 N   0  0  0  0  0  0  0  0  0  0  0  0
    0.2125    0.9083    0.0000 C   0  0  0  0  0  0  0  0  0  0  0  0
    0.6250    2.1833    0.0000 C   0  0  0  0  0  0  0  0  0  0  0  0
    4.6417    2.0083    0.0000 C   0  0  0  0  0  0  0  0  0  0  0  0
    3.5542    2.7833    0.0000 N   0  0  0  0  0  0  0  0  0  0  0  0
    3.8167    2.0083    0.0000 N   0  0  0  0  0  0  0  0  0  0  0  0
    4.2250    3.2750    0.0000 N   0  0  0  0  0  0  0  0  0  0  0  0
    4.8917    2.7958    0.0000 N   0  0  0  0  0  0  0  0  0  0  0  0
    5.1292    1.3500    0.0000 C   0  0  0  0  0  0  0  0  0  0  0  0
    4.8042    0.5958    0.0000 C   0  0  0  0  0  0  0  0  0  0  0  0
    1.5250    0.2458    0.0000 C   0  0  0  0  0  0  0  0  0  0  0  0
    3.9875    0.5083    0.0000 C   0  0  0  0  0  0  0  0  0  0  0  0
    2.0792    1.9458    0.0000 O   0  0  0  0  0  0  0  0  0  0  0  0
    3.4917    1.1750    0.0000 C   0  0  0  0  0  0  0  0  0  0  0  0
    3.6500   -0.2500    0.0000 C   0  0  0  0  0  0  0  0  0  0  0  0
    2.3417    0.3333    0.0000 C   0  0  0  0  0  0  0  0  0  0  0  0
   -0.2708    0.2458    0.0000 C   0  0  0  0  0  0  0  0  0  0  0  0
    2.8292   -0.3417    0.0000 C   0  0  0  0  0  0  0  0  0  0  0  0
    2.6667    1.0833    0.0000 C   0  0  0  0  0  0  0  0  0  0  0  0
    1.2042    2.7708    0.0000 C   0  0  0  0  0  0  0  0  0  0  0  0
   -0.1125    2.5583    0.0000 C   0  0  0  0  0  0  0  0  0  0  0  0
    5.9500    1.4458    0.0000 C   0  0  0  0  0  0  0  0  0  0  0  0
    5.2917   -0.0667    0.0000 C   0  0  0  0  0  0  0  0  0  0  0  0
   -1.0958    0.3333    0.0000 C   0  0  0  0  0  0  0  0  0  0  0  0
   -1.5833   -0.3375    0.0000 C   0  0  0  0  0  0  0  0  0  0  0  0
    0.0125    3.3750    0.0000 C   0  0  0  0  0  0  0  0  0  0  0  0
    0.8292    3.5083    0.0000 C   0  0  0  0  0  0  0  0  0  0  0  0
    6.1042    0.0208    0.0000 C   0  0  0  0  0  0  0  0  0  0  0  0
    6.4417    0.7750    0.0000 C   0  0  0  0  0  0  0  0  0  0  0  0
   -2.3958   -0.2500    0.0000 C   0  0  0  0  0  0  0  0  0  0  0  0
  2  1  1  0
  3  4  2  0
  4  1  1  0
  5  2  1  0
  6 11  1  0
  7  8  1  0
  8  6  2  0
  9 10  1  0
 10  6  1  0
 11 12  1  0
 12 14  1  0
 13  1  1  0
 14 16  2  0
 15  2  2  0
 16 21  1  0
 17 20  2  0
 18 13  1  0
 19  4  1  0
 20 18  1  0
 21 18  2  0
 22  5  1  0
 23  5  1  0
 24 11  2  0
 25 12  2  0
 26 19  1  0
 27 26  1  0
 28 23  1  0
 29 22  1  0
 30 25  1  0
 31 30  2  0
 32 27  1  0
  3  5  1  0
 14 17  1  0
 28 29  1  0
 31 24  1  0
  7  9  2  0
M  END
>  <ID>  (814) 


>  <MOLENAME>  (814) 
IRBESARTAN

>  <therap>  (814) 
angiotensin 2 receptor antagonist

>  <ref>  (814) 
J Clin Hypertens 3:283 (2001); N Engl J Med 345:851 (2001)

>  <cas#>  (814) 
138402-11-6

>  <source>  (814) 
synthetic; BMS-186295, SR-47436

>  <status>  (814) 
USP, INN, BAN

>  <tradename>  (814) 
AVAPRO

>  <SMILES>  (814) 
CCCCC1=NC2(CCCC2)C(=O)N1Cc1ccc(-c2ccccc2-c2nnn[nH]2)cc1

>  <standardized_failed>  (814) 
False

$$$$

     RDKit          2D

 26 29  0  0  0  0  0  0  0  0999 V2000
    5.8500   -3.4917    0.0000 N   0  0  0  0  0  0  0  0  0  0  0  0
    6.5667   -2.2750    0.0000 C   0  0  0  0  0  0  0  0  0  0  0  0
    5.1417   -3.0875    0.0000 C   0  0  0  0  0  0  0  0  0  0  0  0
    4.4292   -3.4917    0.0000 C   0  0  0  0  0  0  0  0  0  0  0  0
    5.1500   -2.2667    0.0000 C   0  0  0  0  0  0  0  0  0  0  0  0
    6.5667   -3.1000    0.0000 C   0  0  0  0  0  0  0  0  0  0  0  0
    5.8625   -1.8542    0.0000 C   0  0  0  0  0  0  0  0  0  0  0  0
    3.7167   -3.0875    0.0000 C   0  0  0  0  0  0  0  0  0  0  0  0
    4.4292   -4.3125    0.0000 O   0  0  0  0  0  0  0  0  0  0  0  0
    3.7167   -2.2625    0.0000 C   0  0  0  0  0  0  0  0  0  0  0  0
    4.4292   -1.8500    0.0000 C   0  0  0  0  0  0  0  0  0  0  0  0
    3.0042   -3.4917    0.0000 N   0  0  0  0  0  0  0  0  0  0  0  0
    7.2875   -1.8667    0.0000 C   0  0  0  0  0  0  0  0  0  0  0  0
    5.8417   -4.3167    0.0000 C   0  0  0  0  0  0  0  0  0  0  0  0
    1.5792   -4.3167    0.0000 N   0  0  0  0  0  0  0  0  0  0  0  0
    5.8667   -1.0292    0.0000 O   0  0  0  0  0  0  0  0  0  0  0  0
    5.1292   -4.7250    0.0000 C   0  0  0  0  0  0  0  0  0  0  0  0
    2.2917   -3.0792    0.0000 C   0  0  0  0  0  0  0  0  0  0  0  0
    3.0042   -4.3167    0.0000 C   0  0  0  0  0  0  0  0  0  0  0  0
    7.2917   -1.0417    0.0000 O   0  0  0  0  0  0  0  0  0  0  0  0
    3.0000   -1.8500    0.0000 F   0  0  0  0  0  0  0  0  0  0  0  0
    1.5792   -3.4917    0.0000 C   0  0  0  0  0  0  0  0  0  0  0  0
    2.2917   -4.7292    0.0000 C   0  0  0  0  0  0  0  0  0  0  0  0
    8.0000   -2.2875    0.0000 O   0  0  0  0  0  0  0  0  0  0  0  0
    0.8667   -4.7292    0.0000 C   0  0  0  0  0  0  0  0  0  0  0  0
    6.5542   -4.7292    0.0000 C   0  0  0  0  0  0  0  0  0  0  0  0
  2  6  2  0
  3  1  1  0
  4  3  1  0
  5  3  2  0
  6  1  1  0
  7  2  1  0
  8  4  2  0
  9 17  1  0
 10 11  2  0
 11  5  1  0
 12  8  1  0
 13  2  1  0
 14  1  1  0
 15 23  1  0
 16  7  2  0
 17 14  1  0
 18 12  1  0
 19 12  1  0
 20 13  2  0
 21 10  1  0
 22 18  1  0
 23 19  1  0
 24 13  1  0
 25 15  1  0
 14 26  1  1
  9  4  1  0
  7  5  1  0
  8 10  1  0
 15 22  1  0
M  END
>  <ID>  (815) 


>  <MOLENAME>  (815) 
LEVOFLOXACIN

>  <therap>  (815) 
antibacterial

>  <ref>  (815) 
Chemotherapy (1990), 36(4), 268-76; Antimicrob. Agents Chemother. (1989), 33(7), 1105-7; J. Med. Chem. (1987), 30(12), 2283-6

>  <cas#>  (815) 
138199-71-0

>  <source>  (815) 
synthetic; DR-3355, RWJ-25213

>  <status>  (815) 
USAN, INN, BAN, JAN

>  <tradename>  (815) 
LEVAQUIN

>  <SMILES>  (815) 
C[C@H]1COc2c(N3CCN(C)CC3)c(F)cc3c2n1cc(C(=O)O)c3=O

>  <standardized_failed>  (815) 
False

$$$$

     RDKit          2D

 16 12  0  0  0  0  0  0  0  0999 V2000
    3.2667   -2.8125    0.0000 C   0  0  0  0  0  0  0  0  0  0  0  0
    2.4417   -2.8042    0.0000 C   0  0  0  0  0  0  0  0  0  0  0  0
    4.0917   -2.8125    0.0000 C   0  0  0  0  0  0  0  0  0  0  0  0
    3.2667   -3.6375    0.0000 C   0  0  0  0  0  0  0  0  0  0  0  0
    2.0292   -2.0917    0.0000 C   0  0  0  0  0  0  0  0  0  0  0  0
    4.5042   -2.0917    0.0000 C   0  0  0  0  0  0  0  0  0  0  0  0
    3.9750   -4.0500    0.0000 O   0  0  0  0  0  0  0  0  0  0  0  0
    5.3292   -2.0917    0.0000 O   0  0  0  0  0  0  0  0  0  0  0  0
    1.2042   -2.0875    0.0000 O   0  0  0  0  0  0  0  0  0  0  0  0
    2.5500   -4.0417    0.0000 O   0  0  0  0  0  0  0  0  0  0  0  0
    4.0917   -1.3792    0.0000 O   0  0  0  0  0  0  0  0  0  0  0  0
    2.4417   -1.3792    0.0000 O   0  0  0  0  0  0  0  0  0  0  0  0
    3.2667   -1.9875    0.0000 O   0  0  0  0  0  0  0  0  0  0  0  0
    4.8292   -4.0000    0.0000 Li  0  0  0  0  0 15  0  0  0  0  0  0
    0.3375   -1.5625    0.0000 Li  0  0  0  0  0 15  0  0  0  0  0  0
    5.9792   -1.3750    0.0000 Li  0  0  0  0  0 15  0  0  0  0  0  0
  2  1  1  0
  3  1  1  0
  4  1  1  0
  5  2  1  0
  6  3  1  0
  7  4  1  0
  8  6  1  0
  9  5  1  0
 10  4  2  0
 11  6  2  0
 12  5  2  0
 13  1  1  0
M  CHG  6   7  -1   8  -1   9  -1  14   1  15   1  16   1
M  END
>  <ID>  (816) 


>  <MOLENAME>  (816) 
LITHIUM CITRATE

>  <therap>  (816) 
antidepressant

>  <ref>  (816) 
J. Clin. Pharm. Ther. (1991), 16(1), 41-4; Cancer Biol. Ther. (2011), 11(3), 368-370

>  <cas#>  (816) 
6080-58-6, 919-16-4 [anhydrous]

>  <source>  (816) 
synthetic

>  <status>  (816) 
USP

>  <tradename>  (816) 
LITAREX

>  <SMILES>  (816) 
O=C([O-])CC(O)(CC(=O)[O-])C(=O)[O-].[Li+].[Li+].[Li+]

>  <standardized_failed>  (816) 
False

$$$$

     RDKit          2D

 27 30  0  0  0  0  0  0  0  0999 V2000
    2.8792   -2.4917    0.0000 N   0  0  0  0  0  0  0  0  0  0  0  0
    3.6042   -1.2500    0.0000 C   0  0  0  0  0  0  0  0  0  0  0  0
    2.1667   -2.0792    0.0000 C   0  0  0  0  0  0  0  0  0  0  0  0
    2.1667   -1.2500    0.0000 C   0  0  0  0  0  0  0  0  0  0  0  0
    3.6042   -2.0792    0.0000 C   0  0  0  0  0  0  0  0  0  0  0  0
    2.8875   -0.8292    0.0000 C   0  0  0  0  0  0  0  0  0  0  0  0
    1.4542   -2.4917    0.0000 C   0  0  0  0  0  0  0  0  0  0  0  0
    0.7417   -2.0792    0.0000 C   0  0  0  0  0  0  0  0  0  0  0  0
    0.0250   -2.4917    0.0000 N   0  0  0  0  0  0  0  0  0  0  0  0
    0.7417   -1.2500    0.0000 C   0  0  0  0  0  0  0  0  0  0  0  0
    2.8792   -3.3167    0.0000 C   0  0  0  0  0  0  0  0  0  0  0  0
    1.4542   -0.8375    0.0000 C   0  0  0  0  0  0  0  0  0  0  0  0
    4.3250   -0.8417    0.0000 C   0  0  0  0  0  0  0  0  0  0  0  0
    3.2917   -4.0375    0.0000 C   0  0  0  0  0  0  0  0  0  0  0  0
    2.4667   -4.0292    0.0000 C   0  0  0  0  0  0  0  0  0  0  0  0
    0.0292   -3.3167    0.0000 C   0  0  0  0  0  0  0  0  0  0  0  0
    2.8875   -0.0042    0.0000 O   0  0  0  0  0  0  0  0  0  0  0  0
   -1.4083   -3.3125    0.0000 N   0  0  0  0  0  0  0  0  0  0  0  0
    4.3250   -0.0167    0.0000 O   0  0  0  0  0  0  0  0  0  0  0  0
    1.4542   -3.3167    0.0000 O   0  0  0  0  0  0  0  0  0  0  0  0
    0.0292   -0.8417    0.0000 F   0  0  0  0  0  0  0  0  0  0  0  0
   -0.6875   -2.0792    0.0000 C   0  0  0  0  0  0  0  0  0  0  0  0
   -0.6958   -3.7250    0.0000 C   0  0  0  0  0  0  0  0  0  0  0  0
    5.0375   -1.2542    0.0000 O   0  0  0  0  0  0  0  0  0  0  0  0
   -1.4000   -2.4875    0.0000 C   0  0  0  0  0  0  0  0  0  0  0  0
    0.7417   -3.7292    0.0000 C   0  0  0  0  0  0  0  0  0  0  0  0
   -0.6958   -4.5500    0.0000 C   0  0  0  0  0  0  0  0  0  0  0  0
  2  5  2  0
  3  1  1  0
  4  3  2  0
  5  1  1  0
  6  2  1  0
  7  3  1  0
  8  7  2  0
  9  8  1  0
 10  8  1  0
 11  1  1  0
 12  4  1  0
 13  2  1  0
 14 11  1  0
 15 11  1  0
 16  9  1  0
 17  6  2  0
 18 25  1  0
 19 13  2  0
 20  7  1  0
 21 10  1  0
 22  9  1  0
 23 16  1  0
 24 13  1  0
 25 22  1  0
 26 20  1  0
 27 23  1  0
 14 15  1  0
  4  6  1  0
 12 10  2  0
 23 18  1  0
M  END
>  <ID>  (817) 


>  <MOLENAME>  (817) 
GATIFLOXACIN

>  <therap>  (817) 
antibacterial

>  <ref>  (817) 
Pharmacotherapy (2001), 21(1), 35-59; J. Antimicrob. Chemother. (1995), 36(2), 293-301; Antimicrob. Agents Chemother. (1992), 36(10), 2108-17

>  <cas#>  (817) 
160738-57-8

>  <source>  (817) 
synthetic; BMS-206584-01, AM-1155

>  <status>  (817) 
USAN, INN

>  <tradename>  (817) 
TEQUIN

>  <SMILES>  (817) 
COc1c(N2CCNC(C)C2)c(F)cc2c1n(C1CC1)cc(C(=O)O)c2=O

>  <standardized_failed>  (817) 
False

$$$$

     RDKit          2D

 14 14  0  0  0  0  0  0  0  0999 V2000
    6.3750   -3.2625    0.0000 N   0  0  0  0  0  0  0  0  0  0  0  0
    4.6542   -3.0292    0.0000 C   0  0  0  0  0  0  0  0  0  0  0  0
    5.3667   -3.4417    0.0000 C   0  0  0  0  0  0  0  0  0  0  0  0
    3.6542   -3.8542    0.0000 C   0  0  0  0  0  0  0  0  0  0  0  0
    4.7792   -3.6375    0.0000 C   0  0  0  0  0  0  0  0  0  0  0  0
    5.5500   -4.1292    0.0000 C   0  0  0  0  0  0  0  0  0  0  0  0
    3.8542   -3.2417    0.0000 O   0  0  0  0  0  0  0  0  0  0  0  0
    2.9417   -3.4417    0.0000 O   0  0  0  0  0  0  0  0  0  0  0  0
    4.3667   -4.3500    0.0000 O   0  0  0  0  0  0  0  0  0  0  0  0
    7.1042   -2.8667    0.0000 C   0  0  0  0  0  0  0  0  0  0  0  0
    5.7792   -2.7250    0.0000 C   0  0  0  0  0  0  0  0  0  0  0  0
    5.3625   -2.0125    0.0000 O   0  0  0  0  0  0  0  0  0  0  0  0
    8.5292   -2.9125    0.0000 O   0  0  0  0  0  0  0  0  0  0  0  0
    7.8042   -3.3042    0.0000 C   0  0  0  0  0  0  0  0  0  0  0  0
  2  3  1  0
  3  1  1  0
  4  5  1  0
  5  6  1  0
  6  1  1  0
  7  2  1  0
  4  8  1  1
  5  9  1  6
 10  1  1  0
 11  3  1  0
 12 11  1  0
 13 14  1  0
 14 10  1  0
  4  2  1  0
M  END
>  <ID>  (818) 


>  <MOLENAME>  (818) 
MIGLITOL

>  <therap>  (818) 
alpha-glucosidase inhibitor, antidiabetic

>  <ref>  (818) 
Drugs 59:521 (2000)

>  <cas#>  (818) 
72432-03-2

>  <source>  (818) 
synthetic; Bay-M1099

>  <status>  (818) 
USAN, INN, BAN

>  <tradename>  (818) 
GLYSET

>  <SMILES>  (818) 
OCCN1C[C@@H](O)[C@@H](O)C(O)C1CO

>  <standardized_failed>  (818) 
False

$$$$

     RDKit          2D

 35 35  0  0  0  0  0  0  0  0999 V2000
    9.1292   -3.6917    0.0000 C   0  0  0  0  0  0  0  0  0  0  0  0
    8.3292   -3.4792    0.0000 O   0  0  0  0  0  0  0  0  0  0  0  0
    8.1250   -4.2792    0.0000 C   0  0  0  0  0  0  0  0  0  0  0  0
    8.9167   -4.4875    0.0000 C   0  0  0  0  0  0  0  0  0  0  0  0
    5.9792   -3.0417    0.0000 C   0  0  0  0  0  0  0  0  0  0  0  0
    7.4125   -4.6917    0.0000 C   0  0  0  0  0  0  0  0  0  0  0  0
    6.7000   -3.4542    0.0000 O   0  0  0  0  0  0  0  0  0  0  0  0
    5.9792   -2.2250    0.0000 C   0  0  0  0  0  0  0  0  0  0  0  0
    9.8417   -3.2792    0.0000 O   0  0  0  0  0  0  0  0  0  0  0  0
    6.6917   -0.9792    0.0000 C   0  0  0  0  0  0  0  0  0  0  0  0
    5.2667   -3.4542    0.0000 O   0  0  0  0  0  0  0  0  0  0  0  0
    5.2667   -1.8167    0.0000 C   0  0  0  0  0  0  0  0  0  0  0  0
    7.4042   -0.5667    0.0000 O   0  0  0  0  0  0  0  0  0  0  0  0
    6.6917   -1.8042    0.0000 N   0  0  0  0  0  0  0  0  0  0  0  0
    6.7000   -4.2792    0.0000 C   0  0  0  0  0  0  0  0  0  0  0  0
    9.3292   -5.2000    0.0000 C   0  0  0  0  0  0  0  0  0  0  0  0
    5.2667   -0.9917    0.0000 C   0  0  0  0  0  0  0  0  0  0  0  0
    5.9875   -4.6917    0.0000 C   0  0  0  0  0  0  0  0  0  0  0  0
   10.1417   -5.2000    0.0000 C   0  0  0  0  0  0  0  0  0  0  0  0
    5.2750   -4.2792    0.0000 C   0  0  0  0  0  0  0  0  0  0  0  0
   11.7917   -6.6250    0.0000 C   0  0  0  0  0  0  0  0  0  0  0  0
   -0.4333   -4.2792    0.0000 C   0  0  0  0  0  0  0  0  0  0  0  0
    5.9792   -0.5792    0.0000 C   0  0  0  0  0  0  0  0  0  0  0  0
    4.5542   -0.5875    0.0000 C   0  0  0  0  0  0  0  0  0  0  0  0
   11.3792   -5.9125    0.0000 C   0  0  0  0  0  0  0  0  0  0  0  0
    0.2875   -4.6917    0.0000 C   0  0  0  0  0  0  0  0  0  0  0  0
    4.5625   -4.6917    0.0000 C   0  0  0  0  0  0  0  0  0  0  0  0
    1.0000   -4.2792    0.0000 C   0  0  0  0  0  0  0  0  0  0  0  0
    1.7125   -4.6917    0.0000 C   0  0  0  0  0  0  0  0  0  0  0  0
    2.4250   -4.2792    0.0000 C   0  0  0  0  0  0  0  0  0  0  0  0
    3.1375   -4.6917    0.0000 C   0  0  0  0  0  0  0  0  0  0  0  0
    3.8500   -4.2792    0.0000 C   0  0  0  0  0  0  0  0  0  0  0  0
   10.5625   -5.9125    0.0000 C   0  0  0  0  0  0  0  0  0  0  0  0
   12.6167   -6.6250    0.0000 C   0  0  0  0  0  0  0  0  0  0  0  0
   -1.1458   -4.6917    0.0000 C   0  0  0  0  0  0  0  0  0  0  0  0
  2  1  1  0
  3  4  1  0
  4  1  1  0
  5  7  1  0
  3  6  1  1
 15  7  1  0
  8  5  1  0
  9  1  2  0
 10 14  1  0
 11  5  2  0
  8 12  1  1
 13 10  2  0
  8 14  1  0
 15  6  1  6
  4 16  1  1
 17 12  1  0
 18 15  1  0
 19 16  1  0
 20 18  1  0
 21 25  1  0
 22 26  1  0
 23 17  1  0
 24 17  1  0
 25 33  1  0
 26 28  1  0
 27 20  1  0
 28 29  1  0
 29 30  1  0
 30 31  1  0
 31 32  1  0
 32 27  1  0
 33 19  1  0
 34 21  1  0
 35 22  1  0
  3  2  1  0
M  END
>  <ID>  (819) 


>  <MOLENAME>  (819) 
ORLISTAT

>  <therap>  (819) 
reversible lipase inhibitor, antiobesity

>  <ref>  (819) 
J Clin Pharmacol 35:1103 (1995); JAMA 281:235 (1999); J Clin Pharmacol 43 :428 (2003)

>  <cas#>  (819) 
96829-58-2

>  <source>  (819) 
semisynthetic; Ro-18-0647/002

>  <status>  (819) 
USAN, INN, BAN

>  <tradename>  (819) 
XENICAL

>  <SMILES>  (819) 
CCCCCCCCCCC[C@@H](C[C@H]1OC(=O)[C@H]1CCCCCC)OC(=O)[C@@H](CC(C)C)NC=O

>  <standardized_failed>  (819) 
False

$$$$

     RDKit          2D

 32 35  0  0  0  0  0  0  0  0999 V2000
    7.1375   -4.2042    0.0000 N   0  0  0  0  0  0  0  0  0  0  0  0
    7.8542   -2.9875    0.0000 C   0  0  0  0  0  0  0  0  0  0  0  0
    6.4292   -3.8000    0.0000 C   0  0  0  0  0  0  0  0  0  0  0  0
    6.4375   -2.9792    0.0000 C   0  0  0  0  0  0  0  0  0  0  0  0
    7.8542   -3.8125    0.0000 C   0  0  0  0  0  0  0  0  0  0  0  0
    7.1500   -2.5667    0.0000 C   0  0  0  0  0  0  0  0  0  0  0  0
    5.0042   -3.8000    0.0000 C   0  0  0  0  0  0  0  0  0  0  0  0
    5.7167   -4.2042    0.0000 C   0  0  0  0  0  0  0  0  0  0  0  0
    7.1292   -5.0292    0.0000 C   0  0  0  0  0  0  0  0  0  0  0  0
    5.7167   -2.5625    0.0000 C   0  0  0  0  0  0  0  0  0  0  0  0
    5.0042   -2.9750    0.0000 C   0  0  0  0  0  0  0  0  0  0  0  0
    8.5750   -2.5792    0.0000 C   0  0  0  0  0  0  0  0  0  0  0  0
    3.5750   -3.8000    0.0000 N   0  0  0  0  0  0  0  0  0  0  0  0
    4.2917   -4.2125    0.0000 C   0  0  0  0  0  0  0  0  0  0  0  0
    7.5417   -5.7542    0.0000 C   0  0  0  0  0  0  0  0  0  0  0  0
    6.7167   -5.7417    0.0000 C   0  0  0  0  0  0  0  0  0  0  0  0
    2.1500   -3.8000    0.0000 C   0  0  0  0  0  0  0  0  0  0  0  0
    2.8625   -4.2167    0.0000 C   0  0  0  0  0  0  0  0  0  0  0  0
    1.4417   -4.2042    0.0000 N   0  0  0  0  0  0  0  0  0  0  0  0
    7.1542   -1.7417    0.0000 O   0  0  0  0  0  0  0  0  0  0  0  0
    8.5792   -1.7542    0.0000 O   0  0  0  0  0  0  0  0  0  0  0  0
    2.1500   -2.9750    0.0000 C   0  0  0  0  0  0  0  0  0  0  0  0
    3.5750   -2.9750    0.0000 C   0  0  0  0  0  0  0  0  0  0  0  0
    5.7167   -5.0250    0.0000 O   0  0  0  0  0  0  0  0  0  0  0  0
    2.8625   -2.5667    0.0000 C   0  0  0  0  0  0  0  0  0  0  0  0
    4.2875   -2.5625    0.0000 F   0  0  0  0  0  0  0  0  0  0  0  0
    9.2875   -3.0000    0.0000 O   0  0  0  0  0  0  0  0  0  0  0  0
    0.9292   -5.3417    0.0000 Cl  0  0  0  0  0  0  0  0  0  0  0  0
    0.7250   -3.8000    0.0000 C   0  0  0  0  0  0  0  0  0  0  0  0
    1.4417   -2.5542    0.0000 C   0  0  0  0  0  0  0  0  0  0  0  0
    5.0000   -5.4292    0.0000 C   0  0  0  0  0  0  0  0  0  0  0  0
    0.7250   -2.9750    0.0000 C   0  0  0  0  0  0  0  0  0  0  0  0
  2  5  2  0
  3  1  1  0
  4  3  2  0
  5  1  1  0
  6  2  1  0
  7  8  2  0
  8  3  1  0
  9  1  1  0
 10  4  1  0
 11  7  1  0
 12  2  1  0
 13 14  1  0
 14  7  1  0
 15  9  1  0
 16  9  1  0
 17 18  1  1
 18 13  1  0
 19 17  1  0
 20  6  2  0
 21 12  2  0
 22 25  1  1
 23 13  1  0
 24  8  1  0
 25 23  1  0
 26 11  1  0
 27 12  1  0
 29 19  1  0
 30 22  1  0
 31 24  1  0
 32 30  1  0
 16 15  1  0
  6  4  1  0
 11 10  2  0
 22 17  1  0
 32 29  1  0
M  END
>  <ID>  (820) 


>  <MOLENAME>  (820) 
MOXIFLOXACIN HYDROCHLORIDE

>  <therap>  (820) 
antibacterial

>  <ref>  (820) 
Expert Rev. Respir. Med. (2008), 2(4), 443-453; Antimicrob. Agents Chemother. (1997), 41(8), 1818-1824; Antimicrob. Agents Chemother. (1997), 41(1), 101-106

>  <cas#>  (820) 
186826-86-8

>  <source>  (820) 
synthetic

>  <status>  (820) 
USAN

>  <tradename>  (820) 
AVELOX

>  <SMILES>  (820) 
COc1c(CN2CC[C@@H]3CCCN[C@@H]3C2)c(F)cc2c1n(C1CC1)cc(C(=O)O)c2=O

>  <standardized_failed>  (820) 
False

$$$$

     RDKit          2D

 26 27  0  0  0  0  0  0  0  0999 V2000
    6.3292   -2.2417    0.0000 N   0  0  0  0  0  0  0  0  0  0  0  0
    6.7375   -1.5250    0.0000 C   0  0  0  0  0  0  0  0  0  0  0  0
    5.5167   -2.0792    0.0000 C   0  0  0  0  0  0  0  0  0  0  0  0
    6.1792   -0.9167    0.0000 S   0  0  0  0  0  0  0  0  0  0  0  0
    5.4292   -1.2542    0.0000 C   0  0  0  0  0  0  0  0  0  0  0  0
   -0.2625   -1.2792    0.0000 N   0  0  0  0  0  0  0  0  0  0  0  0
    7.5542   -1.4292    0.0000 O   0  0  0  0  0  0  0  0  0  0  0  0
    4.9125   -2.6292    0.0000 O   0  0  0  0  0  0  0  0  0  0  0  0
    4.7125   -0.8542    0.0000 C   0  0  0  0  0  0  0  0  0  0  0  0
   -0.2625   -2.1042    0.0000 C   0  0  0  0  0  0  0  0  0  0  0  0
   -0.9833   -0.8667    0.0000 C   0  0  0  0  0  0  0  0  0  0  0  0
    4.0000   -1.2667    0.0000 C   0  0  0  0  0  0  0  0  0  0  0  0
    2.5792   -2.1000    0.0000 C   0  0  0  0  0  0  0  0  0  0  0  0
    0.4500   -2.5167    0.0000 C   0  0  0  0  0  0  0  0  0  0  0  0
   -1.6958   -1.2792    0.0000 C   0  0  0  0  0  0  0  0  0  0  0  0
    7.6667   -2.2417    0.0000 Cl  0  0  0  0  0  0  0  0  0  0  0  0
   -0.9833   -2.5167    0.0000 C   0  0  0  0  0  0  0  0  0  0  0  0
    3.2792   -0.8667    0.0000 C   0  0  0  0  0  0  0  0  0  0  0  0
    4.0042   -2.0917    0.0000 C   0  0  0  0  0  0  0  0  0  0  0  0
    1.1625   -2.1042    0.0000 C   0  0  0  0  0  0  0  0  0  0  0  0
    2.5792   -1.2792    0.0000 C   0  0  0  0  0  0  0  0  0  0  0  0
    3.3000   -2.5042    0.0000 C   0  0  0  0  0  0  0  0  0  0  0  0
   -1.6958   -2.1042    0.0000 C   0  0  0  0  0  0  0  0  0  0  0  0
    1.8750   -2.5125    0.0000 O   0  0  0  0  0  0  0  0  0  0  0  0
   -2.4083   -0.8667    0.0000 C   0  0  0  0  0  0  0  0  0  0  0  0
   -2.4083   -0.0417    0.0000 C   0  0  0  0  0  0  0  0  0  0  0  0
  2  1  1  0
  3  1  1  0
  4  2  1  0
  5  3  1  0
  6 10  2  0
  7  2  2  0
  8  3  2  0
  9  5  1  0
 10 14  1  0
 11  6  1  0
 12  9  1  0
 13 21  2  0
 14 20  1  0
 15 23  1  0
 17 10  1  0
 18 12  2  0
 19 12  1  0
 20 24  1  0
 21 18  1  0
 22 19  2  0
 23 17  2  0
 24 13  1  0
 25 15  1  0
 26 25  1  0
  5  4  1  0
 22 13  1  0
 15 11  2  0
M  END
>  <ID>  (821) 


>  <MOLENAME>  (821) 
PIOGLITAZONE HYDROCHLORIDE

>  <therap>  (821) 
antidiabetic

>  <ref>  (821) 
Endocrinology 129:1915 (1991); Diabetes 41:476 (1992); Am J Physiol 264:C1600 (1993)

>  <cas#>  (821) 
111025-46-8 (pioglitazone)

>  <source>  (821) 
synthetic; U-72107A

>  <status>  (821) 
USAN, INN, BAN

>  <tradename>  (821) 
ACTOS

>  <SMILES>  (821) 
CCc1cnc(CCOc2ccc(CC3SC(=O)NC3=O)cc2)cc1

>  <standardized_failed>  (821) 
False

$$$$

     RDKit          2D

 29 31  0  0  0  0  0  0  0  0999 V2000
    0.7042   -2.3667    0.0000 C   0  0  0  0  0  0  0  0  0  0  0  0
    1.4917   -2.1042    0.0000 C   0  0  0  0  0  0  0  0  0  0  0  0
    0.7042   -3.2000    0.0000 C   0  0  0  0  0  0  0  0  0  0  0  0
    1.9792   -2.7792    0.0000 C   0  0  0  0  0  0  0  0  0  0  0  0
   -0.0125   -1.9542    0.0000 C   0  0  0  0  0  0  0  0  0  0  0  0
    1.5000   -3.4542    0.0000 C   0  0  0  0  0  0  0  0  0  0  0  0
   -0.0125   -3.6125    0.0000 C   0  0  0  0  0  0  0  0  0  0  0  0
   -0.7250   -2.3750    0.0000 C   0  0  0  0  0  0  0  0  0  0  0  0
    4.0542   -4.9042    0.0000 N   0  0  0  0  0  0  0  0  0  0  0  0
   -0.7250   -3.2000    0.0000 C   0  0  0  0  0  0  0  0  0  0  0  0
    2.8042   -2.7667    0.0000 C   0  0  0  0  0  0  0  0  0  0  0  0
    1.7417   -1.3167    0.0000 O   0  0  0  0  0  0  0  0  0  0  0  0
    4.4667   -5.6167    0.0000 C   0  0  0  0  0  0  0  0  0  0  0  0
    3.2292   -4.9042    0.0000 C   0  0  0  0  0  0  0  0  0  0  0  0
    4.4625   -4.1875    0.0000 C   0  0  0  0  0  0  0  0  0  0  0  0
    3.2250   -3.4792    0.0000 C   0  0  0  0  0  0  0  0  0  0  0  0
   -1.4375   -1.9625    0.0000 O   0  0  0  0  0  0  0  0  0  0  0  0
   -1.4458   -3.6125    0.0000 O   0  0  0  0  0  0  0  0  0  0  0  0
    5.5167   -3.1167    0.0000 Cl  0  0  0  0  0  0  0  0  0  0  0  0
    5.2917   -5.6167    0.0000 C   0  0  0  0  0  0  0  0  0  0  0  0
    2.8125   -4.1917    0.0000 C   0  0  0  0  0  0  0  0  0  0  0  0
    4.0500   -3.4750    0.0000 C   0  0  0  0  0  0  0  0  0  0  0  0
   -1.4458   -4.4375    0.0000 C   0  0  0  0  0  0  0  0  0  0  0  0
   -1.4375   -1.1375    0.0000 C   0  0  0  0  0  0  0  0  0  0  0  0
    5.7000   -6.3292    0.0000 C   0  0  0  0  0  0  0  0  0  0  0  0
    5.6917   -4.9042    0.0000 C   0  0  0  0  0  0  0  0  0  0  0  0
    6.5167   -4.9000    0.0000 C   0  0  0  0  0  0  0  0  0  0  0  0
    6.5250   -6.3292    0.0000 C   0  0  0  0  0  0  0  0  0  0  0  0
    6.9375   -5.6167    0.0000 C   0  0  0  0  0  0  0  0  0  0  0  0
  2  1  1  0
  3  1  2  0
  4  2  1  0
  5  1  1  0
  6  3  1  0
  7  3  1  0
  8  5  2  0
  9 14  1  0
 10  8  1  0
 11  4  1  0
 12  2  2  0
 13  9  1  0
 14 21  1  0
 15 22  1  0
 16 11  1  0
 17  8  1  0
 18 10  1  0
 20 13  1  0
 21 16  1  0
 22 16  1  0
 23 18  1  0
 24 17  1  0
 25 20  2  0
 26 20  1  0
 27 26  2  0
 28 25  1  0
 29 28  2  0
  4  6  1  0
 10  7  2  0
 15  9  1  0
 27 29  1  0
M  END
>  <ID>  (822) 


>  <MOLENAME>  (822) 
DONEPEZIL HYDROCHLORIDE

>  <therap>  (822) 
acetylcholinesterase inhibitor (reversible), cognitive enhancer

>  <ref>  (822) 
Biol. Pharm. Bull. (1995), 18(8), 1145-7; Biorg. Med. Chem. Lett. (1992), 2(8), 871-6; Adv. Behav. Biol. (1990), 38B, 409-13

>  <cas#>  (822) 
142057-77-0

>  <source>  (822) 
synthetic; E-2020, BNAG

>  <status>  (822) 
USAN, INN, BAN

>  <tradename>  (822) 
ARICEPT

>  <SMILES>  (822) 
COc1cc2c(cc1OC)C(=O)C(CC1CCN(Cc3ccccc3)CC1)C2

>  <standardized_failed>  (822) 
False

$$$$

     RDKit          2D

 30 32  0  0  0  0  0  0  0  0999 V2000
    4.9167   -2.4292    0.0000 C   0  0  0  0  0  0  0  0  0  0  0  0
    4.4375   -3.1042    0.0000 N   0  0  0  0  0  0  0  0  0  0  0  0
    4.4292   -1.7667    0.0000 C   0  0  0  0  0  0  0  0  0  0  0  0
    3.6500   -2.8542    0.0000 C   0  0  0  0  0  0  0  0  0  0  0  0
    3.6417   -2.0292    0.0000 C   0  0  0  0  0  0  0  0  0  0  0  0
    5.7417   -2.4292    0.0000 C   0  0  0  0  0  0  0  0  0  0  0  0
    4.6792   -0.9792    0.0000 C   0  0  0  0  0  0  0  0  0  0  0  0
    8.6167   -4.5667    0.0000 C   0  0  0  0  0  0  0  0  0  0  0  0
    9.4417   -4.5667    0.0000 C   0  0  0  0  0  0  0  0  0  0  0  0
    6.1542   -3.1417    0.0000 C   0  0  0  0  0  0  0  0  0  0  0  0
    4.6917   -3.8875    0.0000 C   0  0  0  0  0  0  0  0  0  0  0  0
    9.8542   -3.8500    0.0000 O   0  0  0  0  0  0  0  0  0  0  0  0
    8.2042   -3.8542    0.0000 C   0  0  0  0  0  0  0  0  0  0  0  0
    7.3875   -3.8542    0.0000 C   0  0  0  0  0  0  0  0  0  0  0  0
    5.4875   -0.8042    0.0000 C   0  0  0  0  0  0  0  0  0  0  0  0
    4.1250   -0.3792    0.0000 C   0  0  0  0  0  0  0  0  0  0  0  0
    5.1792    0.5875    0.0000 C   0  0  0  0  0  0  0  0  0  0  0  0
    6.9750   -3.1417    0.0000 C   0  0  0  0  0  0  0  0  0  0  0  0
    2.9292   -3.2667    0.0000 C   0  0  0  0  0  0  0  0  0  0  0  0
    2.9292   -1.6167    0.0000 C   0  0  0  0  0  0  0  0  0  0  0  0
    9.8542   -5.2792    0.0000 O   0  0  0  0  0  0  0  0  0  0  0  0
    5.7375   -0.0250    0.0000 C   0  0  0  0  0  0  0  0  0  0  0  0
    4.3667    0.4083    0.0000 C   0  0  0  0  0  0  0  0  0  0  0  0
    5.4292    1.3708    0.0000 F   0  0  0  0  0  0  0  0  0  0  0  0
    8.6167   -3.1417    0.0000 O   0  0  0  0  0  0  0  0  0  0  0  0
    7.3792   -2.4292    0.0000 O   0  0  0  0  0  0  0  0  0  0  0  0
    5.5042   -4.0542    0.0000 C   0  0  0  0  0  0  0  0  0  0  0  0
    4.1500   -4.5042    0.0000 C   0  0  0  0  0  0  0  0  0  0  0  0
    2.2167   -2.0292    0.0000 C   0  0  0  0  0  0  0  0  0  0  0  0
    2.2167   -2.8542    0.0000 C   0  0  0  0  0  0  0  0  0  0  0  0
  2  1  1  0
  3  1  2  0
  4  2  1  0
  5  3  1  0
  6  1  1  0
  7  3  1  0
  8 13  1  0
  9  8  1  0
 10  6  2  0
 11  2  1  0
 12  9  2  0
 13 14  1  0
 14 18  1  0
 15  7  2  0
 16  7  1  0
 17 23  1  0
 18 10  1  0
 19  4  2  0
 20  5  2  0
 21  9  1  0
 22 15  1  0
 23 16  2  0
 24 17  1  0
 13 25  1  1
 18 26  1  1
 27 11  1  0
 28 11  1  0
 29 20  1  0
 30 19  1  0
  4  5  1  0
 17 22  2  0
 30 29  2  0
M  END
>  <ID>  (823) 


>  <MOLENAME>  (823) 
FLUVASTATIN

>  <therap>  (823) 
antihyperlipidemic, HMGCoA reductase inhibitor

>  <ref>  (823) 
J. Med. Chem. (1991), 34(1), 463-6; Biochim. Biophys. Acta (1993), 1167(2), 223-5; Atherosclerosis (1991), 87(2-3), 147-57

>  <cas#>  (823) 
93957-54-1

>  <source>  (823) 
synthetic; XU-62-320

>  <status>  (823) 
USAN, INN, BAN

>  <tradename>  (823) 
LESCOL

>  <SMILES>  (823) 
CC(C)n1c(/C=C/[C@@H](O)C[C@@H](O)CC(=O)O)c(-c2ccc(F)cc2)c2ccccc21

>  <standardized_failed>  (823) 
False

$$$$

     RDKit          2D

 30 32  0  0  0  0  0  0  0  0999 V2000
    2.9542   -4.2125    0.0000 C   0  0  0  0  0  0  0  0  0  0  0  0
    3.7042   -3.8417    0.0000 C   0  0  0  0  0  0  0  0  0  0  0  0
    3.8667   -3.0417    0.0000 C   0  0  0  0  0  0  0  0  0  0  0  0
    2.2167   -3.8542    0.0000 C   0  0  0  0  0  0  0  0  0  0  0  0
    2.9625   -5.0375    0.0000 C   0  0  0  0  0  0  0  0  0  0  0  0
    6.4042   -6.4792    0.0000 C   0  0  0  0  0  0  0  0  0  0  0  0
    5.2500   -6.4792    0.0000 C   0  0  0  0  0  0  0  0  0  0  0  0
    4.6792   -2.9500    0.0000 S   0  0  0  0  0  0  0  0  0  0  0  0
    6.4042   -5.8125    0.0000 C   0  0  0  0  0  0  0  0  0  0  0  0
    2.9667   -6.6792    0.0000 N   0  0  0  0  0  0  0  0  0  0  0  0
    5.8292   -6.8125    0.0000 C   0  0  0  0  0  0  0  0  0  0  0  0
    4.4167   -4.2417    0.0000 C   0  0  0  0  0  0  0  0  0  0  0  0
    5.0167   -3.6917    0.0000 C   0  0  0  0  0  0  0  0  0  0  0  0
    2.0250   -3.0542    0.0000 C   0  0  0  0  0  0  0  0  0  0  0  0
    3.3417   -2.4042    0.0000 C   0  0  0  0  0  0  0  0  0  0  0  0
    4.6667   -6.8125    0.0000 O   0  0  0  0  0  0  0  0  0  0  0  0
    2.2500   -5.4500    0.0000 C   0  0  0  0  0  0  0  0  0  0  0  0
    3.6792   -5.4375    0.0000 C   0  0  0  0  0  0  0  0  0  0  0  0
    5.8292   -5.4792    0.0000 O   0  0  0  0  0  0  0  0  0  0  0  0
    2.5292   -2.4125    0.0000 C   0  0  0  0  0  0  0  0  0  0  0  0
    2.2542   -6.2667    0.0000 C   0  0  0  0  0  0  0  0  0  0  0  0
    3.6792   -6.2667    0.0000 C   0  0  0  0  0  0  0  0  0  0  0  0
    5.2500   -5.8125    0.0000 O   0  0  0  0  0  0  0  0  0  0  0  0
    6.9875   -5.4792    0.0000 O   0  0  0  0  0  0  0  0  0  0  0  0
    5.8292   -7.4792    0.0000 O   0  0  0  0  0  0  0  0  0  0  0  0
    1.6167   -4.4250    0.0000 C   0  0  0  0  0  0  0  0  0  0  0  0
    2.9667   -7.5042    0.0000 C   0  0  0  0  0  0  0  0  0  0  0  0
    1.2417   -2.8167    0.0000 C   0  0  0  0  0  0  0  0  0  0  0  0
    0.8292   -4.1792    0.0000 C   0  0  0  0  0  0  0  0  0  0  0  0
    0.6375   -3.3875    0.0000 C   0  0  0  0  0  0  0  0  0  0  0  0
  2  1  1  0
  3  2  2  0
  4  1  1  0
  5  1  2  0
  7 11  1  0
  8  3  1  0
  9  6  1  0
 10 21  1  0
 11  6  1  0
 12  2  1  0
 13 12  2  0
 14  4  2  0
 15  3  1  0
 16  7  2  0
 17  5  1  0
 18  5  1  0
 19  9  2  0
 20 14  1  0
 21 17  1  0
 22 18  1  0
 23  7  1  0
 24  9  1  0
 25 11  1  0
 26  4  1  0
 27 10  1  0
 28 14  1  0
 29 26  2  0
 30 29  1  0
 22 10  1  0
 20 15  1  0
  8 13  1  0
 30 28  2  0
M  END
>  <ID>  (824) 


>  <MOLENAME>  (824) 
PIZOTYLINE MALATE

>  <therap>  (824) 
5HT antagonist, antimigraine

>  <ref>  (824) 
J Cardiovas Pharmacol 8:805 (1986); Eur Neurol 38:31 (1997)

>  <cas#>  (824) 
5189-11-7

>  <source>  (824) 
synthetic; Pizotifen; BC-105

>  <status>  (824) 
USAN, INN, BAN

>  <tradename>  (824) 
SANDOMIGRAN

>  <SMILES>  (824) 
CN1CCC(=C2c3c(cccc3)CCc3c2ccs3)CC1

>  <standardized_failed>  (824) 
False

$$$$

     RDKit          2D

 27 28  0  0  0  0  0  0  0  0999 V2000
    5.2667   -0.4417    0.0000 C   0  0  0  0  0  0  0  0  0  0  0  0
    4.6750    0.1333    0.0000 C   0  0  0  0  0  0  0  0  0  0  0  0
    7.0125   -2.1542    0.0000 N   0  0  0  0  0  0  0  0  0  0  0  0
    6.0500   -0.2167    0.0000 O   0  0  0  0  0  0  0  0  0  0  0  0
    5.0667   -1.2375    0.0000 O   0  0  0  0  0  0  0  0  0  0  0  0
    4.0875    0.7000    0.0000 C   0  0  0  0  0  0  0  0  0  0  0  0
    4.1042   -0.4542    0.0000 C   0  0  0  0  0  0  0  0  0  0  0  0
    6.4292   -1.5667    0.0000 C   0  0  0  0  0  0  0  0  0  0  0  0
    8.8042   -1.9167    0.0000 Br  0  0  0  0  0  0  0  0  0  0  0  0
    6.6417   -0.7875    0.0000 C   0  0  0  0  0  0  0  0  0  0  0  0
    5.2417    0.7208    0.0000 O   0  0  0  0  0  0  0  0  0  0  0  0
    7.8042   -1.9417    0.0000 C   0  0  0  0  0  0  0  0  0  0  0  0
    6.7917   -2.9500    0.0000 C   0  0  0  0  0  0  0  0  0  0  0  0
    6.2792   -2.2375    0.0000 C   0  0  0  0  0  0  0  0  0  0  0  0
    8.0250   -1.1500    0.0000 C   0  0  0  0  0  0  0  0  0  0  0  0
    7.4417   -0.5625    0.0000 C   0  0  0  0  0  0  0  0  0  0  0  0
    3.3042   -0.2542    0.0000 C   0  0  0  0  0  0  0  0  0  0  0  0
    4.3292   -1.2375    0.0000 C   0  0  0  0  0  0  0  0  0  0  0  0
    4.2875    1.5000    0.0000 C   0  0  0  0  0  0  0  0  0  0  0  0
    3.3042    0.4750    0.0000 C   0  0  0  0  0  0  0  0  0  0  0  0
    7.3750   -3.5375    0.0000 C   0  0  0  0  0  0  0  0  0  0  0  0
    3.6917    2.0792    0.0000 C   0  0  0  0  0  0  0  0  0  0  0  0
    2.7125    1.0500    0.0000 C   0  0  0  0  0  0  0  0  0  0  0  0
    2.7292   -0.8500    0.0000 C   0  0  0  0  0  0  0  0  0  0  0  0
    3.7542   -1.8292    0.0000 C   0  0  0  0  0  0  0  0  0  0  0  0
    2.9625   -1.6292    0.0000 C   0  0  0  0  0  0  0  0  0  0  0  0
    2.9125    1.8458    0.0000 C   0  0  0  0  0  0  0  0  0  0  0  0
  2  1  1  0
  3  8  1  0
  4  1  1  0
  5  1  2  0
  6  2  1  0
  7  2  1  0
  8 10  1  0
 10  4  1  0
 11  2  1  0
 12 15  1  0
 13  3  1  0
 14  3  1  0
 15 16  1  0
 16 10  1  0
 17  7  2  0
 18  7  1  0
 19  6  2  0
 20  6  1  0
 21 13  1  0
 22 19  1  0
 23 20  2  0
 24 17  1  0
 25 18  2  0
 26 25  1  0
 27 22  2  0
  3 12  1  0
 26 24  2  0
 23 27  1  0
M  CHG  2   3   1   9  -1
M  END
>  <ID>  (825) 


>  <MOLENAME>  (825) 
PIPENZOLATE BROMIDE

>  <therap>  (825) 
antispasmodic

>  <ref>  (825) 
JACS 74:1485 (1952); Br J Radiol 49:769 (1976); Clin Chem 23:292 (1977)

>  <cas#>  (825) 
125-51-9, 13473-38-6 [pipenzolate]

>  <source>  (825) 
synthetic; JB-323

>  <status>  (825) 
INN, BAN

>  <tradename>  (825) 
PIPTAL

>  <SMILES>  (825) 
CC[N+]1(C)CCCC(OC(=O)C(O)(c2ccccc2)c2ccccc2)C1

>  <standardized_failed>  (825) 
False

$$$$

     RDKit          2D

 24 27  0  0  0  0  0  0  0  0999 V2000
    3.3750   -1.8542    0.0000 S   0  0  0  0  0  0  0  0  0  0  0  0
    4.0917   -1.4500    0.0000 N   0  0  0  0  0  0  0  0  0  0  0  0
    2.6625   -1.4417    0.0000 C   0  0  0  0  0  0  0  0  0  0  0  0
    0.5292   -1.8542    0.0000 S   0  0  0  0  0  0  0  0  0  0  0  0
    1.2417   -1.4417    0.0000 C   0  0  0  0  0  0  0  0  0  0  0  0
    4.0917   -0.6250    0.0000 C   0  0  0  0  0  0  0  0  0  0  0  0
    2.6667   -0.6167    0.0000 C   0  0  0  0  0  0  0  0  0  0  0  0
    3.3792   -0.2042    0.0000 N   0  0  0  0  0  0  0  0  0  0  0  0
    1.9542   -1.8542    0.0000 C   0  0  0  0  0  0  0  0  0  0  0  0
    4.8042   -0.2167    0.0000 C   0  0  0  0  0  0  0  0  0  0  0  0
    1.2417   -0.6167    0.0000 C   0  0  0  0  0  0  0  0  0  0  0  0
    1.9542   -0.2042    0.0000 C   0  0  0  0  0  0  0  0  0  0  0  0
    5.5167   -0.6375    0.0000 C   0  0  0  0  0  0  0  0  0  0  0  0
    2.7875   -2.4417    0.0000 O   0  0  0  0  0  0  0  0  0  0  0  0
    3.9542   -2.4417    0.0000 O   0  0  0  0  0  0  0  0  0  0  0  0
    6.2375   -0.2292    0.0000 C   0  0  0  0  0  0  0  0  0  0  0  0
   -0.0583   -2.4417    0.0000 O   0  0  0  0  0  0  0  0  0  0  0  0
    1.1125   -2.4417    0.0000 O   0  0  0  0  0  0  0  0  0  0  0  0
    6.2417    0.5958    0.0000 C   0  0  0  0  0  0  0  0  0  0  0  0
   -0.1833   -1.4417    0.0000 N   0  0  0  0  0  0  0  0  0  0  0  0
    4.8125    0.6083    0.0000 C   0  0  0  0  0  0  0  0  0  0  0  0
    5.5292    1.0083    0.0000 C   0  0  0  0  0  0  0  0  0  0  0  0
    5.3167    0.2125    0.0000 C   0  0  0  0  0  0  0  0  0  0  0  0
    0.5292   -0.2042    0.0000 Cl  0  0  0  0  0  0  0  0  0  0  0  0
  2  1  1  0
  3  1  1  0
  4  5  1  0
  5  9  2  0
  6  2  1  0
  7  3  2  0
  8  7  1  0
  9  3  1  0
 10  6  1  0
 11  5  1  0
 12  7  1  0
 13 10  1  0
 14  1  2  0
 15  1  2  0
 16 13  1  0
 17  4  2  0
 18  4  2  0
 19 22  1  0
 20  4  1  0
 21 10  1  0
 22 21  1  0
 23 13  1  0
 24 11  1  0
 11 12  2  0
  8  6  1  0
 23 22  1  0
 19 16  2  0
M  END
>  <ID>  (826) 


>  <MOLENAME>  (826) 
CYCLOTHIAZIDE

>  <therap>  (826) 
diuretic

>  <ref>  (826) 
J. Neurosci. (1993), 13(9), 3904-15; Curr. Ther. Res. (1967), 9(6), 288-92; J. Org. Chem. (1961), 26, 2814-18

>  <cas#>  (826) 
2259-96-3

>  <source>  (826) 
synthetic; 35483

>  <status>  (826) 
USP XXII, INN, BAN

>  <tradename>  (826) 
ANHYDRON

>  <SMILES>  (826) 
NS(=O)(=O)c1cc2c(cc1Cl)NC(C1CC3C=CC1C3)NS2(=O)=O

>  <standardized_failed>  (826) 
False

$$$$

     RDKit          2D

 14 14  0  0  0  0  0  0  0  0999 V2000
    0.7625   -2.7000    0.0000 C   0  0  0  0  0  0  0  0  0  0  0  0
    1.4375   -2.2167    0.0000 N   0  0  0  0  0  0  0  0  0  0  0  0
   -0.0208   -2.4417    0.0000 N   0  0  0  0  0  0  0  0  0  0  0  0
    1.0167   -3.4917    0.0000 C   0  0  0  0  0  0  0  0  0  0  0  0
    1.8500   -3.4917    0.0000 N   0  0  0  0  0  0  0  0  0  0  0  0
    2.1042   -2.7000    0.0000 C   0  0  0  0  0  0  0  0  0  0  0  0
    1.4375   -1.3917    0.0000 C   0  0  0  0  0  0  0  0  0  0  0  0
   -0.1958   -1.6292    0.0000 O   0  0  0  0  0  0  0  0  0  0  0  0
   -0.6375   -2.9917    0.0000 O   0  0  0  0  0  0  0  0  0  0  0  0
    2.1500   -0.9792    0.0000 C   0  0  0  0  0  0  0  0  0  0  0  0
    2.1500   -0.1542    0.0000 O   0  0  0  0  0  0  0  0  0  0  0  0
    3.5750   -0.9875    0.0000 Cl  0  0  0  0  0  0  0  0  0  0  0  0
    2.8875   -2.4417    0.0000 C   0  0  0  0  0  0  0  0  0  0  0  0
    2.8625   -1.3917    0.0000 C   0  0  0  0  0  0  0  0  0  0  0  0
  2  1  1  0
  3  1  1  0
  4  1  2  0
  5  4  1  0
  6  2  1  0
  7  2  1  0
  8  3  1  0
  9  3  2  0
 10  7  1  0
 11 10  1  0
 12 14  1  0
 13  6  1  0
 14 10  1  0
  6  5  2  0
M  CHG  2   3   1   8  -1
M  END
>  <ID>  (827) 


>  <MOLENAME>  (827) 
ORNIDAZOLE

>  <therap>  (827) 
antiinfective

>  <ref>  (827) 
Ann. Pharmacother. (2006), 40(10), 1804-1813; Antimicrob. Agents Chemother. (1977), 11(4), 631-7; Proc. Soc. Exp. Biol. Med. (1970), 133(2), 490-2

>  <cas#>  (827) 
16773-42-5

>  <source>  (827) 
synthetic; Ro-7-0207

>  <status>  (827) 
USAN, INN

>  <tradename>  (827) 
nan

>  <SMILES>  (827) 
Cc1ncc([N+](=O)[O-])n1CC(O)CCl

>  <standardized_failed>  (827) 
False

$$$$

     RDKit          2D

 28 31  0  0  0  0  0  0  0  0999 V2000
    3.9125   -2.6792    0.0000 C   0  0  0  0  0  0  0  0  0  0  0  0
    3.9042   -3.5042    0.0000 C   0  0  0  0  0  0  0  0  0  0  0  0
    3.1792   -3.9042    0.0000 C   0  0  0  0  0  0  0  0  0  0  0  0
    4.6917   -2.4292    0.0000 C   0  0  0  0  0  0  0  0  0  0  0  0
    1.7542   -4.7250    0.0000 C   0  0  0  0  0  0  0  0  0  0  0  0
    2.4750   -3.4875    0.0000 C   0  0  0  0  0  0  0  0  0  0  0  0
    1.7625   -3.9000    0.0000 C   0  0  0  0  0  0  0  0  0  0  0  0
    5.1667   -3.1042    0.0000 C   0  0  0  0  0  0  0  0  0  0  0  0
    4.6792   -3.7625    0.0000 C   0  0  0  0  0  0  0  0  0  0  0  0
    1.0500   -5.1292    0.0000 C   0  0  0  0  0  0  0  0  0  0  0  0
    3.2042   -2.2542    0.0000 C   0  0  0  0  0  0  0  0  0  0  0  0
    5.9917   -3.1042    0.0000 C   0  0  0  0  0  0  0  0  0  0  0  0
    2.4792   -2.6625    0.0000 C   0  0  0  0  0  0  0  0  0  0  0  0
    4.9542   -1.6542    0.0000 O   0  0  0  0  0  0  0  0  0  0  0  0
    3.1875   -4.7292    0.0000 C   0  0  0  0  0  0  0  0  0  0  0  0
    6.8167   -3.1042    0.0000 C   0  0  0  0  0  0  0  0  0  0  0  0
    1.0500   -3.4792    0.0000 C   0  0  0  0  0  0  0  0  0  0  0  0
    5.7667   -1.4917    0.0000 C   0  0  0  0  0  0  0  0  0  0  0  0
    2.4667   -5.1375    0.0000 C   0  0  0  0  0  0  0  0  0  0  0  0
   -1.0875   -4.7250    0.0000 C   0  0  0  0  0  0  0  0  0  0  0  0
    0.3417   -4.7250    0.0000 C   0  0  0  0  0  0  0  0  0  0  0  0
   -0.3750   -5.1375    0.0000 O   0  0  0  0  0  0  0  0  0  0  0  0
    6.0292   -0.7042    0.0000 O   0  0  0  0  0  0  0  0  0  0  0  0
   -1.0958   -3.9000    0.0000 O   0  0  0  0  0  0  0  0  0  0  0  0
    0.3417   -3.9000    0.0000 C   0  0  0  0  0  0  0  0  0  0  0  0
    3.9042   -1.8542    0.0000 C   0  0  0  0  0  0  0  0  0  0  0  0
    6.3125   -2.1042    0.0000 C   0  0  0  0  0  0  0  0  0  0  0  0
   -1.8083   -5.1375    0.0000 C   0  0  0  0  0  0  0  0  0  0  0  0
  2  1  1  0
  3  2  1  0
  4  1  1  0
  5  7  1  0
  6 13  1  0
  7  6  1  0
  8  4  1  0
  9  2  1  0
 10  5  2  0
 11  1  1  0
  8 12  1  6
 13 11  1  0
  4 14  1  1
 15  3  1  0
 16 12  3  0
 17  7  1  0
 18 14  1  0
 19 15  1  0
 20 22  1  0
 21 25  1  0
 21 22  1  1
 23 18  2  0
 24 20  2  0
 25 17  1  0
  1 26  1  1
 27 18  1  0
 28 20  1  0
  8  9  1  0
  3  6  1  0
 19  5  1  0
 21 10  1  0
M  END
>  <ID>  (828) 


>  <MOLENAME>  (828) 
ETHYNODIOL DIACETATE

>  <therap>  (828) 
progestin

>  <ref>  (828) 
Int. J. Fertil. (1964), 9(1), 129-35; Metab., Clin. Exp. (1965), 14SUPPL:451-6; Appl. Thera. (1964), 6, 503-7

>  <cas#>  (828) 
297-76-7

>  <source>  (828) 
semisynthetic; SC-11800

>  <status>  (828) 
USP, INN, BAN, JAN

>  <tradename>  (828) 
nan

>  <SMILES>  (828) 
C#C[C@@H]1CC2C3CCC4=C[C@@H](OC(C)=O)CCC4C3CC[C@]2(C)[C@H]1OC(C)=O

>  <standardized_failed>  (828) 
False

$$$$

     RDKit          2D

 30 33  0  0  0  0  0  0  0  0999 V2000
   -2.3458   -9.0917    0.0000 S   0  0  0  0  0  0  0  0  0  0  0  0
    2.6542   -7.0500    0.0000 C   0  0  0  0  0  0  0  0  0  0  0  0
    2.6500   -7.8750    0.0000 C   0  0  0  0  0  0  0  0  0  0  0  0
    1.9292   -8.2792    0.0000 C   0  0  0  0  0  0  0  0  0  0  0  0
    1.2167   -7.8542    0.0000 C   0  0  0  0  0  0  0  0  0  0  0  0
    0.5042   -8.2667    0.0000 C   0  0  0  0  0  0  0  0  0  0  0  0
    0.5042   -9.0917    0.0000 C   0  0  0  0  0  0  0  0  0  0  0  0
    3.4417   -6.8042    0.0000 C   0  0  0  0  0  0  0  0  0  0  0  0
    1.9500   -6.6292    0.0000 C   0  0  0  0  0  0  0  0  0  0  0  0
    1.2250   -7.0292    0.0000 C   0  0  0  0  0  0  0  0  0  0  0  0
    3.4292   -8.1375    0.0000 C   0  0  0  0  0  0  0  0  0  0  0  0
    1.9292   -9.1000    0.0000 C   0  0  0  0  0  0  0  0  0  0  0  0
   -1.6333   -9.5042    0.0000 O   0  0  0  0  0  0  0  0  0  0  0  0
   -0.2083   -7.8542    0.0000 C   0  0  0  0  0  0  0  0  0  0  0  0
   -2.9333   -8.5042    0.0000 O   0  0  0  0  0  0  0  0  0  0  0  0
   -1.7583   -8.5042    0.0000 O   0  0  0  0  0  0  0  0  0  0  0  0
   -0.2083   -9.5042    0.0000 C   0  0  0  0  0  0  0  0  0  0  0  0
    1.2167   -9.5042    0.0000 C   0  0  0  0  0  0  0  0  0  0  0  0
   -0.9125   -9.0917    0.0000 C   0  0  0  0  0  0  0  0  0  0  0  0
    3.9167   -7.4750    0.0000 C   0  0  0  0  0  0  0  0  0  0  0  0
   -1.6625   -7.4667    0.0000 N   0  0  0  0  0  0  0  0  0  0  0  0
   -1.6625   -6.1417    0.0000 N   0  0  0  0  0  0  0  0  0  0  0  0
   -3.0583   -9.5042    0.0000 O   0  0  0  0  0  0  0  0  0  0  0  0
    3.7042   -6.0250    0.0000 O   0  0  0  0  0  0  0  0  0  0  0  0
   -0.9125   -8.2667    0.0000 C   0  0  0  0  0  0  0  0  0  0  0  0
    2.6542   -6.2250    0.0000 C   0  0  0  0  0  0  0  0  0  0  0  0
   -2.2333   -6.4792    0.0000 C   0  0  0  0  0  0  0  0  0  0  0  0
   -1.0958   -7.1417    0.0000 C   0  0  0  0  0  0  0  0  0  0  0  0
   -1.0958   -6.4792    0.0000 C   0  0  0  0  0  0  0  0  0  0  0  0
   -2.2333   -7.1417    0.0000 C   0  0  0  0  0  0  0  0  0  0  0  0
  2  3  1  0
  3  4  1  0
  4  5  1  0
  5  6  1  0
  6 14  2  0
  7 17  2  0
  8  2  1  0
  9 10  1  0
 10  5  1  0
 11  3  1  0
 12 18  1  0
 13  1  1  0
 14 25  1  0
 15  1  2  0
 16  1  2  0
 17 19  1  0
 18  7  1  0
 19 13  1  0
 20 11  1  0
 22 27  1  0
 23  1  1  0
 24  8  2  0
 25 19  2  0
  2 26  1  1
 27 30  1  0
 28 21  1  0
 29 28  1  0
 30 21  1  0
  7  6  1  0
  4 12  1  0
  2  9  1  0
  8 20  1  0
 22 29  1  0
M  END
>  <ID>  (829) 


>  <MOLENAME>  (829) 
ESTROPIPATE

>  <therap>  (829) 
estrogen

>  <ref>  (829) 
Clin. Endocrinol. (1978), 9(4), 297-302; Br. J. Obstet. Gynaecol. (1980), 87(8), 718-25; Endocrinology (1961), 68, 327-33

>  <cas#>  (829) 
7280-37-7

>  <source>  (829) 
semisynthetic

>  <status>  (829) 
USP, BAN

>  <tradename>  (829) 
OGEN

>  <SMILES>  (829) 
C[C@]12CCC3c4ccc(OS(=O)(=O)O)cc4CCC3C1CCC2=O

>  <standardized_failed>  (829) 
False

$$$$

     RDKit          2D

 14 14  0  0  0  0  0  0  0  0999 V2000
    6.2750   -2.1417    0.0000 C   0  0  0  0  0  0  0  0  0  0  0  0
    5.5625   -2.5542    0.0000 C   0  0  0  0  0  0  0  0  0  0  0  0
    4.8500   -2.1417    0.0000 C   0  0  0  0  0  0  0  0  0  0  0  0
    6.2708   -1.3167    0.0000 O   0  0  0  0  0  0  0  0  0  0  0  0
    6.9875   -2.5500    0.0000 N   0  0  0  0  0  0  0  0  0  0  0  0
    4.1375   -2.5583    0.0000 C   0  0  0  0  0  0  0  0  0  0  0  0
    3.4208   -2.1458    0.0000 C   0  0  0  0  0  0  0  0  0  0  0  0
    2.7083   -2.5625    0.0000 C   0  0  0  0  0  0  0  0  0  0  0  0
    1.9958   -2.1500    0.0000 Br  0  0  0  0  0  0  0  0  0  0  0  0
    3.4208   -3.8000    0.0000 C   0  0  0  0  0  0  0  0  0  0  0  0
    4.1375   -3.3875    0.0000 C   0  0  0  0  0  0  0  0  0  0  0  0
    6.9875   -3.3750    0.0000 C   0  0  0  0  0  0  0  0  0  0  0  0
    2.7083   -3.3875    0.0000 C   0  0  0  0  0  0  0  0  0  0  0  0
    7.7042   -3.7833    0.0000 C   0  0  0  0  0  0  0  0  0  0  0  0
  2  1  1  0
  3  2  2  0
  4  1  2  0
  5  1  1  0
  6  3  1  0
  7  6  2  0
  8  7  1  0
  9  8  1  0
 10 11  2  0
 11  6  1  0
 12  5  1  0
 13  8  2  0
 14 12  1  0
 10 13  1  0
M  END
>  <ID>  (830) 


>  <MOLENAME>  (830) 
CINROMIDE

>  <therap>  (830) 
anticonvulsant

>  <ref>  (830) 
J Pharm Pharmacol 33:741 (1981); Epilepsia 24:394, 422 (1983); Curr Ther Res 34:7 (1983)

>  <cas#>  (830) 
58473-74-8

>  <source>  (830) 
synthetic

>  <status>  (830) 
USAN, INN

>  <tradename>  (830) 
VUMIDE

>  <SMILES>  (830) 
CCNC(=O)/C=C/c1cc(Br)ccc1

>  <standardized_failed>  (830) 
False

$$$$

     RDKit          2D

 36 39  0  0  0  0  0  0  0  0999 V2000
    2.6542   -7.0500    0.0000 C   0  0  0  0  0  0  0  0  0  0  0  0
    3.4417   -6.8042    0.0000 C   0  0  0  0  0  0  0  0  0  0  0  0
    0.5042   -8.2667    0.0000 C   0  0  0  0  0  0  0  0  0  0  0  0
    2.6500   -7.8750    0.0000 C   0  0  0  0  0  0  0  0  0  0  0  0
    1.2167   -7.8542    0.0000 C   0  0  0  0  0  0  0  0  0  0  0  0
    1.9292   -8.2792    0.0000 C   0  0  0  0  0  0  0  0  0  0  0  0
    0.5042   -9.0917    0.0000 C   0  0  0  0  0  0  0  0  0  0  0  0
    1.2250   -7.0292    0.0000 C   0  0  0  0  0  0  0  0  0  0  0  0
    1.9500   -6.6292    0.0000 C   0  0  0  0  0  0  0  0  0  0  0  0
    3.9167   -7.4750    0.0000 C   0  0  0  0  0  0  0  0  0  0  0  0
    1.9292   -9.1000    0.0000 C   0  0  0  0  0  0  0  0  0  0  0  0
   -0.2083   -7.8542    0.0000 C   0  0  0  0  0  0  0  0  0  0  0  0
    3.4292   -8.1375    0.0000 C   0  0  0  0  0  0  0  0  0  0  0  0
   -0.2083   -9.5042    0.0000 C   0  0  0  0  0  0  0  0  0  0  0  0
    3.4667   -5.8125    0.0000 C   0  0  0  0  0  0  0  0  0  0  0  0
    1.2167   -9.5042    0.0000 C   0  0  0  0  0  0  0  0  0  0  0  0
    4.2375   -6.5875    0.0000 O   0  0  0  0  0  0  0  0  0  0  0  0
   -0.9125   -8.2667    0.0000 C   0  0  0  0  0  0  0  0  0  0  0  0
   -0.9125   -9.0917    0.0000 C   0  0  0  0  0  0  0  0  0  0  0  0
    5.0292   -6.3667    0.0000 C   0  0  0  0  0  0  0  0  0  0  0  0
    4.4125   -3.8417    0.0000 C   0  0  0  0  0  0  0  0  0  0  0  0
    4.0417   -5.2250    0.0000 C   0  0  0  0  0  0  0  0  0  0  0  0
    2.6667   -5.6000    0.0000 O   0  0  0  0  0  0  0  0  0  0  0  0
    3.8292   -4.4292    0.0000 O   0  0  0  0  0  0  0  0  0  0  0  0
    5.2417   -5.5667    0.0000 O   0  0  0  0  0  0  0  0  0  0  0  0
    5.2042   -4.0542    0.0000 O   0  0  0  0  0  0  0  0  0  0  0  0
   -1.6333   -9.5042    0.0000 O   0  0  0  0  0  0  0  0  0  0  0  0
    2.6417   -9.5167    0.0000 Cl  0  0  0  0  0  0  0  0  0  0  0  0
    2.6542   -6.2250    0.0000 C   0  0  0  0  0  0  0  0  0  0  0  0
    0.5167   -6.6167    0.0000 O   0  0  0  0  0  0  0  0  0  0  0  0
    0.5042   -7.4417    0.0000 C   0  0  0  0  0  0  0  0  0  0  0  0
    4.7417   -7.4792    0.0000 C   0  0  0  0  0  0  0  0  0  0  0  0
    5.6167   -6.9500    0.0000 C   0  0  0  0  0  0  0  0  0  0  0  0
    4.2000   -3.0500    0.0000 C   0  0  0  0  0  0  0  0  0  0  0  0
    4.7792   -2.4667    0.0000 C   0  0  0  0  0  0  0  0  0  0  0  0
    6.4125   -6.7292    0.0000 C   0  0  0  0  0  0  0  0  0  0  0  0
  2  1  1  0
  3  5  1  0
  4  1  1  0
  5  8  1  0
  6  4  1  0
  7  3  1  0
  8  9  1  0
  9  1  1  0
 10  2  1  0
 11  6  1  0
 12  3  1  0
 13  4  1  0
 14  7  2  0
  2 15  1  0
 16 11  1  0
  2 17  1  6
 18 12  2  0
 19 18  1  0
 20 17  1  0
 21 24  1  0
 22 15  1  0
 23 15  2  0
 24 22  1  0
 25 20  2  0
 26 21  2  0
 27 19  2  0
 11 28  1  6
  1 29  1  1
  8 30  1  1
  3 31  1  1
 10 32  1  6
 33 20  1  0
 34 21  1  0
 35 34  1  0
 36 33  1  0
 10 13  1  0
  5  6  1  0
 16  7  1  0
 19 14  1  0
M  END
>  <ID>  (831) 


>  <MOLENAME>  (831) 
ALCLOMETAZONE DIPROPIONATE

>  <therap>  (831) 
antiinflammatory, glucocorticoid

>  <ref>  (831) 
Arzniem Forsch 29:992 (1979); 30:1618 (1980)

>  <cas#>  (831) 
66734-13-2

>  <source>  (831) 
semisynthetic; SCH-22219

>  <status>  (831) 
USP, INN, JAN

>  <tradename>  (831) 
ACLOVATE

>  <SMILES>  (831) 
CCC(=O)OCC(=O)[C@@]1(OC(=O)CC)[C@H](C)CC2C3C([C@@H](O)C[C@@]21C)[C@@]1(C)C=CC(=O)C=C1C[C@H]3Cl

>  <standardized_failed>  (831) 
False

$$$$

     RDKit          2D

 18 13  0  0  0  0  0  0  0  0999 V2000
    2.6542   -0.2208    0.0000 C   0  0  0  0  0  0  0  0  0  0  0  0
    2.3292    0.4333    0.0000 P   0  0  0  0  0  0  0  0  0  0  0  0
    1.9417   -0.6292    0.0000 P   0  0  0  0  0  0  0  0  0  0  0  0
    2.9833    0.8667    0.0000 O   0  0  0  0  0  0  0  0  0  0  0  0
    2.1542   -1.4292    0.0000 O   0  0  0  0  0  0  0  0  0  0  0  0
    3.0167   -0.9167    0.0000 O   0  0  0  0  0  0  0  0  0  0  0  0
    1.2250   -0.2167    0.0000 O   0  0  0  0  0  0  0  0  0  0  0  0
    1.5458    0.4292    0.0000 O   0  0  0  0  0  0  0  0  0  0  0  0
    2.1125    1.2333    0.0000 O   0  0  0  0  0  0  0  0  0  0  0  0
    1.3542   -1.2167    0.0000 O   0  0  0  0  0  0  0  0  0  0  0  0
    3.3667    0.1875    0.0000 C   0  0  0  0  0  0  0  0  0  0  0  0
    5.5042   -0.2167    0.0000 N   0  0  0  0  0  0  0  0  0  0  0  0
   -0.3333   -1.3667    0.0000 Na  0  0  0  0  0 15  0  0  0  0  0  0
    4.6167   -1.3417    0.0000 O   0  0  0  0  0  0  0  0  0  0  0  0
    4.4042    1.3083    0.0000 O   0  0  0  0  0  0  0  0  0  0  0  0
    0.3125    1.0625    0.0000 O   0  0  0  0  0  0  0  0  0  0  0  0
    4.7917    0.1958    0.0000 C   0  0  0  0  0  0  0  0  0  0  0  0
    4.0792   -0.2167    0.0000 C   0  0  0  0  0  0  0  0  0  0  0  0
  2  1  1  0
  3  1  1  0
  4  2  2  0
  5  3  2  0
  6  1  1  0
  7  3  1  0
  8  2  1  0
  9  2  1  0
 10  3  1  0
 11  1  1  0
 12 17  1  0
 17 18  1  0
 18 11  1  0
M  CHG  1  13   1
M  END
>  <ID>  (832) 


>  <MOLENAME>  (832) 
ALENDRONATE SODIUM

>  <therap>  (832) 
bone resorption inhibitor, farnesyldiphosphate synthetase inhibitor, antimetastatic

>  <ref>  (832) 
Nature 223:211 (1969); Cancer Res 62:2708 (2002); Mol Pharmacol 62:1255 (2002)

>  <cas#>  (832) 
121268-17-5

>  <source>  (832) 
synthesis

>  <status>  (832) 
USAN

>  <tradename>  (832) 
FOSAMAX

>  <SMILES>  (832) 
NCCCC(O)(P(=O)(O)O)P(=O)(O)O

>  <standardized_failed>  (832) 
False

$$$$

     RDKit          2D

 44 47  0  0  0  0  0  0  0  0999 V2000
    5.6292   -2.2250    0.0000 C   0  0  0  0  0  0  0  0  0  0  0  0
    2.7667   -3.8792    0.0000 C   0  0  0  0  0  0  0  0  0  0  0  0
    4.1917   -3.0542    0.0000 C   0  0  0  0  0  0  0  0  0  0  0  0
    7.0542   -1.3917    0.0000 C   0  0  0  0  0  0  0  0  0  0  0  0
    1.3292   -4.7042    0.0000 C   0  0  0  0  0  0  0  0  0  0  0  0
    2.7667   -4.7042    0.0000 C   0  0  0  0  0  0  0  0  0  0  0  0
    5.6292   -3.0542    0.0000 C   0  0  0  0  0  0  0  0  0  0  0  0
    4.9125   -3.4667    0.0000 C   0  0  0  0  0  0  0  0  0  0  0  0
    2.0417   -5.1250    0.0000 C   0  0  0  0  0  0  0  0  0  0  0  0
    7.7667   -1.8125    0.0000 C   0  0  0  0  0  0  0  0  0  0  0  0
    8.4917   -1.3917    0.0000 C   0  0  0  0  0  0  0  0  0  0  0  0
    1.3042   -7.1875    0.0000 C   0  0  0  0  0  0  0  0  0  0  0  0
    0.6125   -5.9500    0.0000 C   0  0  0  0  0  0  0  0  0  0  0  0
    0.6167   -5.1250    0.0000 N   0  0  0  0  0  0  0  0  0  0  0  0
    4.9125   -1.8167    0.0000 O   0  0  0  0  0  0  0  0  0  0  0  0
   -0.1208   -7.1667    0.0000 C   0  0  0  0  0  0  0  0  0  0  0  0
    3.4792   -3.4667    0.0000 O   0  0  0  0  0  0  0  0  0  0  0  0
    6.3417   -1.8125    0.0000 O   0  0  0  0  0  0  0  0  0  0  0  0
    2.0417   -3.4667    0.0000 O   0  0  0  0  0  0  0  0  0  0  0  0
    7.7667   -0.1542    0.0000 O   0  0  0  0  0  0  0  0  0  0  0  0
    8.4917   -0.5667    0.0000 C   0  0  0  0  0  0  0  0  0  0  0  0
   -0.1083   -6.3500    0.0000 C   0  0  0  0  0  0  0  0  0  0  0  0
    1.3167   -6.3625    0.0000 C   0  0  0  0  0  0  0  0  0  0  0  0
    4.1917   -2.2250    0.0000 C   0  0  0  0  0  0  0  0  0  0  0  0
    7.0542   -0.5667    0.0000 C   0  0  0  0  0  0  0  0  0  0  0  0
    0.5917   -7.5917    0.0000 C   0  0  0  0  0  0  0  0  0  0  0  0
    1.3292   -3.8792    0.0000 C   0  0  0  0  0  0  0  0  0  0  0  0
    3.4792   -5.1250    0.0000 O   0  0  0  0  0  0  0  0  0  0  0  0
    6.3417   -3.4667    0.0000 O   0  0  0  0  0  0  0  0  0  0  0  0
    9.2042   -1.8125    0.0000 O   0  0  0  0  0  0  0  0  0  0  0  0
    4.9125   -4.2917    0.0000 O   0  0  0  0  0  0  0  0  0  0  0  0
    2.0500   -5.9542    0.0000 O   0  0  0  0  0  0  0  0  0  0  0  0
    7.7750   -2.6417    0.0000 O   0  0  0  0  0  0  0  0  0  0  0  0
   -0.8333   -7.5792    0.0000 O   0  0  0  0  0  0  0  0  0  0  0  0
   -0.8208   -5.9292    0.0000 O   0  0  0  0  0  0  0  0  0  0  0  0
    9.2042   -0.1542    0.0000 O   0  0  0  0  0  0  0  0  0  0  0  0
    0.5875   -8.4167    0.0000 O   0  0  0  0  0  0  0  0  0  0  0  0
    2.0167   -7.6042    0.0000 C   0  0  0  0  0  0  0  0  0  0  0  0
    3.4792   -1.8167    0.0000 C   0  0  0  0  0  0  0  0  0  0  0  0
    6.3417   -0.1542    0.0000 C   0  0  0  0  0  0  0  0  0  0  0  0
    2.0042   -8.4292    0.0000 O   0  0  0  0  0  0  0  0  0  0  0  0
    3.4792   -0.9917    0.0000 O   0  0  0  0  0  0  0  0  0  0  0  0
    6.3417    0.6708    0.0000 O   0  0  0  0  0  0  0  0  0  0  0  0
    0.6167   -3.4667    0.0000 C   0  0  0  0  0  0  0  0  0  0  0  0
  2 17  1  6
  3 24  1  0
  4 18  1  6
  5 27  1  0
  6  2  1  0
  7  1  1  0
  8  7  1  0
  9  6  1  0
 10  4  1  0
 11 10  1  0
 12 23  2  0
 13 14  1  1
  5 14  1  6
 15  1  1  0
 16 22  1  0
  3 17  1  6
  1 18  1  6
 19  2  1  0
 20 25  1  0
 21 20  1  0
 22 13  1  0
 23 13  1  0
 24 15  1  0
 25  4  1  0
 26 12  1  0
 27 19  1  0
  6 28  1  6
  7 29  1  6
 11 30  1  6
  8 31  1  1
  9 32  1  1
 10 33  1  1
 16 34  1  6
 22 35  1  1
 36 21  1  0
 26 37  1  1
 38 12  1  0
 24 39  1  1
 25 40  1  1
 41 38  1  0
 42 39  1  0
 43 40  1  0
 27 44  1  1
  3  8  1  0
 11 21  1  0
  5  9  1  0
 26 16  1  0
M  END
>  <ID>  (833) 


>  <MOLENAME>  (833) 
ACARBOSE

>  <therap>  (833) 
alpha-glucosidase & saccharase inhibitor, antidiabetes, antihyperlipidaemia, antiobesity

>  <ref>  (833) 
Naturwissenschaften 64:535 (1977); Carbohydr Res 128:235 (1984); Drugs 35:214 (1988)

>  <cas#>  (833) 
56180-94-0

>  <source>  (833) 
Actinoplanes spp

>  <status>  (833) 
USAN, INN, BAN

>  <tradename>  (833) 
GLUCOBAY

>  <SMILES>  (833) 
C[C@H]1O[C@H](O[C@@H]2[C@@H](CO)O[C@H](O[C@@H]3[C@@H](CO)OC(O)[C@H](O)[C@H]3O)[C@H](O)[C@H]2O)[C@H](O)[C@@H](O)[C@@H]1N[C@H]1C=C(CO)[C@@H](O)[C@H](O)[C@H]1O

>  <standardized_failed>  (833) 
False

$$$$

     RDKit          2D

 20 20  0  0  0  0  0  0  0  0999 V2000
    6.5542   -4.6417    0.0000 N   0  0  0  0  0  0  0  0  0  0  0  0
    7.0417   -3.9792    0.0000 C   0  0  0  0  0  0  0  0  0  0  0  0
    5.8000   -4.3917    0.0000 C   0  0  0  0  0  0  0  0  0  0  0  0
    5.7875   -3.5542    0.0000 C   0  0  0  0  0  0  0  0  0  0  0  0
    6.5667   -3.3167    0.0000 C   0  0  0  0  0  0  0  0  0  0  0  0
    5.0667   -3.1417    0.0000 C   0  0  0  0  0  0  0  0  0  0  0  0
    7.8667   -3.9917    0.0000 O   0  0  0  0  0  0  0  0  0  0  0  0
    5.0667   -2.3167    0.0000 C   0  0  0  0  0  0  0  0  0  0  0  0
    5.7792   -1.0792    0.0000 N   0  0  0  0  0  0  0  0  0  0  0  0
    5.7792   -1.9042    0.0000 C   0  0  0  0  0  0  0  0  0  0  0  0
    7.5875   -1.3042    0.0000 Cl  0  0  0  0  0  0  0  0  0  0  0  0
    5.0750   -4.8167    0.0000 C   0  0  0  0  0  0  0  0  0  0  0  0
    4.3500   -4.4042    0.0000 C   0  0  0  0  0  0  0  0  0  0  0  0
    4.3500   -3.5542    0.0000 C   0  0  0  0  0  0  0  0  0  0  0  0
    5.0625   -0.6667    0.0000 C   0  0  0  0  0  0  0  0  0  0  0  0
    6.4917   -0.6667    0.0000 C   0  0  0  0  0  0  0  0  0  0  0  0
    6.4917    0.1583    0.0000 C   0  0  0  0  0  0  0  0  0  0  0  0
    5.0625    0.1583    0.0000 C   0  0  0  0  0  0  0  0  0  0  0  0
    7.2125    0.5708    0.0000 C   0  0  0  0  0  0  0  0  0  0  0  0
    4.3500    0.5708    0.0000 C   0  0  0  0  0  0  0  0  0  0  0  0
  2  1  1  0
  3  1  1  0
  4  3  2  0
  5  2  1  0
  6  4  1  0
  7  2  2  0
  8  6  1  0
  9 10  1  0
 10  8  1  0
 12  3  1  0
 13 12  2  0
 14 13  1  0
 15  9  1  0
 16  9  1  0
 17 16  1  0
 18 15  1  0
 19 17  1  0
 20 18  1  0
  4  5  1  0
  6 14  2  0
M  END
>  <ID>  (834) 


>  <MOLENAME>  (834) 
ROPINIROLE HYDROCHLORIDE

>  <therap>  (834) 
dopamine receptor agonist, antiParkinsonian

>  <ref>  (834) 
J Med Chem 28:1533 (1985)

>  <cas#>  (834) 
91374-21-9

>  <source>  (834) 
synthetic; SK&F-101468

>  <status>  (834) 
USAN, INN, BAN

>  <tradename>  (834) 
REQUIP

>  <SMILES>  (834) 
CCCN(CCC)CCc1cccc2c1CC(=O)N2

>  <standardized_failed>  (834) 
False

$$$$

     RDKit          2D

 27 30  0  0  0  0  0  0  0  0999 V2000
    3.4917   -1.5750    0.0000 C   0  0  0  0  0  0  0  0  0  0  0  0
    2.7250   -1.2542    0.0000 N   0  0  0  0  0  0  0  0  0  0  0  0
    3.7000   -2.3625    0.0000 C   0  0  0  0  0  0  0  0  0  0  0  0
    2.4125   -3.0750    0.0000 S   0  0  0  0  0  0  0  0  0  0  0  0
    4.1250   -1.0417    0.0000 N   0  0  0  0  0  0  0  0  0  0  0  0
    3.2167   -3.0292    0.0000 C   0  0  0  0  0  0  0  0  0  0  0  0
    2.0042   -1.6500    0.0000 C   0  0  0  0  0  0  0  0  0  0  0  0
    1.8625   -2.4625    0.0000 C   0  0  0  0  0  0  0  0  0  0  0  0
    5.3875   -0.0000    0.0000 N   0  0  0  0  0  0  0  0  0  0  0  0
    4.8917   -1.3292    0.0000 C   0  0  0  0  0  0  0  0  0  0  0  0
    3.9792   -0.2417    0.0000 C   0  0  0  0  0  0  0  0  0  0  0  0
    4.6167    0.2833    0.0000 C   0  0  0  0  0  0  0  0  0  0  0  0
    5.5167   -0.8125    0.0000 C   0  0  0  0  0  0  0  0  0  0  0  0
    4.5250   -2.4417    0.0000 C   0  0  0  0  0  0  0  0  0  0  0  0
    3.5625   -3.7792    0.0000 C   0  0  0  0  0  0  0  0  0  0  0  0
    6.0167    0.5250    0.0000 C   0  0  0  0  0  0  0  0  0  0  0  0
    9.6125    0.7208    0.0000 O   0  0  0  0  0  0  0  0  0  0  0  0
    1.3750   -1.1250    0.0000 C   0  0  0  0  0  0  0  0  0  0  0  0
    1.0917   -2.7417    0.0000 C   0  0  0  0  0  0  0  0  0  0  0  0
    7.4292    0.7625    0.0000 O   0  0  0  0  0  0  0  0  0  0  0  0
    8.8375    1.0083    0.0000 C   0  0  0  0  0  0  0  0  0  0  0  0
    6.7917    0.2375    0.0000 C   0  0  0  0  0  0  0  0  0  0  0  0
    8.2042    0.4750    0.0000 C   0  0  0  0  0  0  0  0  0  0  0  0
    4.8667   -3.1917    0.0000 C   0  0  0  0  0  0  0  0  0  0  0  0
    4.3875   -3.8667    0.0000 C   0  0  0  0  0  0  0  0  0  0  0  0
    0.4542   -2.2167    0.0000 C   0  0  0  0  0  0  0  0  0  0  0  0
    0.6042   -1.4042    0.0000 C   0  0  0  0  0  0  0  0  0  0  0  0
  2  1  2  0
  3  1  1  0
  4  6  1  0
  5  1  1  0
  6  3  2  0
  7  2  1  0
  8  7  2  0
  9 12  1  0
 10  5  1  0
 11  5  1  0
 12 11  1  0
 13 10  1  0
 14  3  1  0
 15  6  1  0
 16  9  1  0
 17 21  1  0
 18  7  1  0
 19  8  1  0
 20 22  1  0
 21 23  1  0
 22 16  1  0
 23 20  1  0
 24 14  2  0
 25 24  1  0
 26 27  1  0
 27 18  2  0
  9 13  1  0
  4  8  1  0
 25 15  2  0
 26 19  2  0
M  END
>  <ID>  (835) 


>  <MOLENAME>  (835) 
QUETIAPINE

>  <therap>  (835) 
antipsychotic: 5HT antagonist, dopamine antagonist, H1-antihistamine, alpha adrenergic blocker

>  <ref>  (835) 
Psychopharmacol 112:285 (1993); 119:231 (1995); Curr Med Res Opin 15:145 (1999)

>  <cas#>  (835) 
111974-69-7

>  <source>  (835) 
synthetic; ICI-204636, ZD-5077, ZM-204639

>  <status>  (835) 
USAN, INN, BAN

>  <tradename>  (835) 
SEROQUEL

>  <SMILES>  (835) 
OCCOCCN1CCN(C2=Nc3c(cccc3)Sc3c2cccc3)CC1

>  <standardized_failed>  (835) 
False

$$$$

     RDKit          2D

 29 31  0  0  0  0  0  0  0  0999 V2000
    3.9167   -0.5417    0.0000 N   0  0  0  0  0  0  0  0  0  0  0  0
    6.4292   -4.1167    0.0000 N   0  0  0  0  0  0  0  0  0  0  0  0
    5.6417   -3.0417    0.0000 C   0  0  0  0  0  0  0  0  0  0  0  0
    3.5000   -1.8125    0.0000 N   0  0  0  0  0  0  0  0  0  0  0  0
    2.8375   -1.3250    0.0000 N   0  0  0  0  0  0  0  0  0  0  0  0
    6.4250   -2.7792    0.0000 C   0  0  0  0  0  0  0  0  0  0  0  0
    6.9167   -3.4500    0.0000 C   0  0  0  0  0  0  0  0  0  0  0  0
    3.0917   -0.5417    0.0000 C   0  0  0  0  0  0  0  0  0  0  0  0
    9.6542   -2.3417    0.0000 C   0  0  0  0  0  0  0  0  0  0  0  0
    5.6417   -3.8667    0.0000 C   0  0  0  0  0  0  0  0  0  0  0  0
    4.1667   -1.3250    0.0000 C   0  0  0  0  0  0  0  0  0  0  0  0
    4.9250   -2.6292    0.0000 C   0  0  0  0  0  0  0  0  0  0  0  0
   10.2667   -1.9917    0.0000 O   0  0  0  0  0  0  0  0  0  0  0  0
    4.2125   -3.0500    0.0000 C   0  0  0  0  0  0  0  0  0  0  0  0
    6.6750   -2.0000    0.0000 C   0  0  0  0  0  0  0  0  0  0  0  0
    9.6625   -3.0500    0.0000 C   0  0  0  0  0  0  0  0  0  0  0  0
    3.5000   -2.6375    0.0000 C   0  0  0  0  0  0  0  0  0  0  0  0
    4.9250   -4.2875    0.0000 C   0  0  0  0  0  0  0  0  0  0  0  0
    7.7292   -1.0375    0.0000 N   0  0  0  0  0  0  0  0  0  0  0  0
    9.0500   -2.0000    0.0000 O   0  0  0  0  0  0  0  0  0  0  0  0
    7.4792   -1.8167    0.0000 C   0  0  0  0  0  0  0  0  0  0  0  0
    4.2125   -3.8750    0.0000 C   0  0  0  0  0  0  0  0  0  0  0  0
    9.0542   -3.4000    0.0000 C   0  0  0  0  0  0  0  0  0  0  0  0
   10.2667   -3.4000    0.0000 C   0  0  0  0  0  0  0  0  0  0  0  0
    8.5375   -0.8542    0.0000 C   0  0  0  0  0  0  0  0  0  0  0  0
    7.1750   -0.4250    0.0000 C   0  0  0  0  0  0  0  0  0  0  0  0
   10.2667   -4.1042    0.0000 C   0  0  0  0  0  0  0  0  0  0  0  0
    9.0542   -4.1042    0.0000 C   0  0  0  0  0  0  0  0  0  0  0  0
    9.6625   -4.4542    0.0000 C   0  0  0  0  0  0  0  0  0  0  0  0
  2 10  1  0
  3 12  2  0
  4 11  1  0
  5  8  2  0
  6  3  1  0
  7  6  2  0
  8  1  1  0
 10 18  2  0
 11  1  2  0
 12 14  1  0
 13  9  2  0
 14 17  1  0
 15  6  1  0
 16  9  1  0
 17  4  1  0
 18 22  1  0
 19 21  1  0
 20  9  1  0
 21 15  1  0
 22 14  2  0
 23 16  2  0
 24 16  1  0
 25 19  1  0
 26 19  1  0
 27 24  2  0
 28 23  1  0
 29 27  1  0
  4  5  1  0
 10  3  1  0
  7  2  1  0
 29 28  2  0
M  END
>  <ID>  (836) 


>  <MOLENAME>  (836) 
RIZATRIPTAN BENZOATE

>  <therap>  (836) 
5HT-1B/1D agonist, antimigraine

>  <ref>  (836) 
Neurology 57:1377 (2001); Drugs 62:1539 (2002)

>  <cas#>  (836) 
144034-80-0

>  <source>  (836) 
synthetic; MK-0462

>  <status>  (836) 
USAN, INN, BAN

>  <tradename>  (836) 
MAXALT

>  <SMILES>  (836) 
CN(C)CCc1c[nH]c2ccc(Cn3cncn3)cc12

>  <standardized_failed>  (836) 
False

$$$$

     RDKit          2D

 23 24  0  0  0  0  0  0  0  0999 V2000
    2.0417   -1.5125    0.0000 C   0  0  0  0  0  0  0  0  0  0  0  0
    1.3292   -1.9292    0.0000 N   0  0  0  0  0  0  0  0  0  0  0  0
    2.8292   -1.7667    0.0000 N   0  0  0  0  0  0  0  0  0  0  0  0
    2.8292   -0.4292    0.0000 N   0  0  0  0  0  0  0  0  0  0  0  0
    2.0417   -0.6875    0.0000 C   0  0  0  0  0  0  0  0  0  0  0  0
    3.3167   -1.1000    0.0000 C   0  0  0  0  0  0  0  0  0  0  0  0
    0.6167   -1.5167    0.0000 C   0  0  0  0  0  0  0  0  0  0  0  0
    0.6167   -0.6875    0.0000 N   0  0  0  0  0  0  0  0  0  0  0  0
    1.3292   -0.2750    0.0000 C   0  0  0  0  0  0  0  0  0  0  0  0
    6.3750   -3.9750    0.0000 C   0  0  0  0  0  0  0  0  0  0  0  0
    2.6792   -4.6875    0.0000 C   0  0  0  0  0  0  0  0  0  0  0  0
    3.0875   -2.5542    0.0000 C   0  0  0  0  0  0  0  0  0  0  0  0
    1.8542   -4.6792    0.0000 O   0  0  0  0  0  0  0  0  0  0  0  0
    6.7792   -3.2542    0.0000 O   0  0  0  0  0  0  0  0  0  0  0  0
    3.0917   -3.9750    0.0000 O   0  0  0  0  0  0  0  0  0  0  0  0
    5.5542   -3.9750    0.0000 O   0  0  0  0  0  0  0  0  0  0  0  0
   -0.1000   -1.9292    0.0000 N   0  0  0  0  0  0  0  0  0  0  0  0
    4.3167   -3.2625    0.0000 C   0  0  0  0  0  0  0  0  0  0  0  0
    3.9042   -2.5500    0.0000 C   0  0  0  0  0  0  0  0  0  0  0  0
    5.1417   -3.2625    0.0000 C   0  0  0  0  0  0  0  0  0  0  0  0
    3.9125   -3.9750    0.0000 C   0  0  0  0  0  0  0  0  0  0  0  0
    6.7875   -4.6875    0.0000 C   0  0  0  0  0  0  0  0  0  0  0  0
    3.0917   -5.4000    0.0000 C   0  0  0  0  0  0  0  0  0  0  0  0
  2  1  2  0
  3  1  1  0
  4  5  1  0
  5  1  1  0
  6  3  1  0
  7  2  1  0
  8  9  1  0
  9  5  2  0
 10 16  1  0
 11 15  1  0
 12  3  1  0
 13 11  2  0
 14 10  2  0
 15 21  1  0
 16 20  1  0
 17  7  1  0
 18 19  1  0
 19 12  1  0
 20 18  1  0
 21 18  1  0
 22 10  1  0
 23 11  1  0
  6  4  2  0
  8  7  2  0
M  END
>  <ID>  (837) 


>  <MOLENAME>  (837) 
FAMCICLOVIR

>  <therap>  (837) 
antiviral

>  <ref>  (837) 
Drugs (2006), 66(18), 2397-2416; Drugs (1995), 50(2), 396-415; J. Med. Chem. (1989), 32(8), 1738-43

>  <cas#>  (837) 
104227-87-4

>  <source>  (837) 
synthetic; BRL-42810

>  <status>  (837) 
USAN, INN, BAN

>  <tradename>  (837) 
FAMVIR

>  <SMILES>  (837) 
CC(=O)OCC(CCn1cnc2cnc(N)nc21)COC(C)=O

>  <standardized_failed>  (837) 
False

$$$$

     RDKit          2D

 38 39  0  0  0  0  0  0  0  0999 V2000
    2.8000   -1.2042    0.0000 C   0  0  0  0  0  0  0  0  0  0  0  0
    4.2292   -1.2042    0.0000 C   0  0  0  0  0  0  0  0  0  0  0  0
    3.5167   -0.7917    0.0000 C   0  0  0  0  0  0  0  0  0  0  0  0
    8.2292   -2.9042    0.0000 S   0  0  0  0  0  0  0  0  0  0  0  0
    4.2292   -2.0292    0.0000 C   0  0  0  0  0  0  0  0  0  0  0  0
    2.8000   -2.0292    0.0000 C   0  0  0  0  0  0  0  0  0  0  0  0
    3.5167   -2.4417    0.0000 N   0  0  0  0  0  0  0  0  0  0  0  0
    2.0792   -0.7792    0.0000 C   0  0  0  0  0  0  0  0  0  0  0  0
    4.9500   -0.7792    0.0000 C   0  0  0  0  0  0  0  0  0  0  0  0
    3.4875    0.3125    0.0000 C   0  0  0  0  0  0  0  0  0  0  0  0
    7.5667   -2.9042    0.0000 O   0  0  0  0  0  0  0  0  0  0  0  0
    8.8917   -2.9042    0.0000 O   0  0  0  0  0  0  0  0  0  0  0  0
    8.2292   -3.5667    0.0000 C   0  0  0  0  0  0  0  0  0  0  0  0
    4.2042    0.7250    0.0000 C   0  0  0  0  0  0  0  0  0  0  0  0
    8.2292   -2.2375    0.0000 O   0  0  0  0  0  0  0  0  0  0  0  0
    4.9417   -0.1542    0.0000 O   0  0  0  0  0  0  0  0  0  0  0  0
    2.0792    0.0458    0.0000 O   0  0  0  0  0  0  0  0  0  0  0  0
    4.9500   -2.4542    0.0000 C   0  0  0  0  0  0  0  0  0  0  0  0
    1.3667   -1.1917    0.0000 O   0  0  0  0  0  0  0  0  0  0  0  0
    5.6667   -1.1917    0.0000 O   0  0  0  0  0  0  0  0  0  0  0  0
    2.0792   -2.4542    0.0000 C   0  0  0  0  0  0  0  0  0  0  0  0
    4.9250    0.7208    0.0000 Cl  0  0  0  0  0  0  0  0  0  0  0  0
    6.3667   -4.9375    0.0000 N   0  0  0  0  0  0  0  0  0  0  0  0
    2.7750    0.7250    0.0000 C   0  0  0  0  0  0  0  0  0  0  0  0
    4.9417   -3.2792    0.0000 O   0  0  0  0  0  0  0  0  0  0  0  0
    8.8125   -3.9000    0.0000 C   0  0  0  0  0  0  0  0  0  0  0  0
    7.6625   -3.9000    0.0000 C   0  0  0  0  0  0  0  0  0  0  0  0
    4.2042    1.5583    0.0000 C   0  0  0  0  0  0  0  0  0  0  0  0
    5.6542   -4.5250    0.0000 C   0  0  0  0  0  0  0  0  0  0  0  0
    5.6750   -2.0167    0.0000 C   0  0  0  0  0  0  0  0  0  0  0  0
    5.6542   -3.6917    0.0000 C   0  0  0  0  0  0  0  0  0  0  0  0
    0.6500   -0.7792    0.0000 C   0  0  0  0  0  0  0  0  0  0  0  0
    2.7750    1.5500    0.0000 C   0  0  0  0  0  0  0  0  0  0  0  0
    6.3875   -2.4292    0.0000 C   0  0  0  0  0  0  0  0  0  0  0  0
    3.4875    1.9708    0.0000 C   0  0  0  0  0  0  0  0  0  0  0  0
    7.6625   -4.5667    0.0000 C   0  0  0  0  0  0  0  0  0  0  0  0
    8.8125   -4.5667    0.0000 C   0  0  0  0  0  0  0  0  0  0  0  0
    8.2292   -4.9042    0.0000 C   0  0  0  0  0  0  0  0  0  0  0  0
  2  3  1  0
  3  1  1  0
  5  7  1  0
  6  1  2  0
  7  6  1  0
  8  1  1  0
  9  2  1  0
 10  3  1  0
 11  4  2  0
 12  4  2  0
 13  4  1  0
 14 10  2  0
 15  4  1  0
 16  9  2  0
 17  8  2  0
 18  5  1  0
 19  8  1  0
 20  9  1  0
 21  6  1  0
 22 14  1  0
 23 29  1  0
 24 10  1  0
 25 18  1  0
 26 13  2  0
 27 13  1  0
 28 14  1  0
 29 31  1  0
 30 20  1  0
 31 25  1  0
 32 19  1  0
 33 24  2  0
 34 30  1  0
 35 33  1  0
 36 27  2  0
 37 26  1  0
 38 36  1  0
  5  2  2  0
 28 35  2  0
 38 37  2  0
M  END
>  <ID>  (838) 


>  <MOLENAME>  (838) 
AMLODIPINE BESYLATE

>  <therap>  (838) 
Ca channel blocker

>  <ref>  (838) 
N Engl J Med 335:1107 (1996); Exp Opin Pharmacother 5:459 (2004)

>  <cas#>  (838) 
111470-99-6

>  <source>  (838) 
synthetic

>  <status>  (838) 
USAN, INN, BAN, JAN

>  <tradename>  (838) 
NORVASC

>  <SMILES>  (838) 
CCOC(=O)C1=C(COCCN)NC(C)=C(C(=O)OC)C1c1c(Cl)cccc1

>  <standardized_failed>  (838) 
False

$$$$

     RDKit          2D

 30 33  0  0  0  0  0  0  0  0999 V2000
    6.3042   -1.9875    0.0000 N   0  0  0  0  0  0  0  0  0  0  0  0
    5.5875   -2.4042    0.0000 C   0  0  0  0  0  0  0  0  0  0  0  0
    5.1750   -1.6875    0.0000 C   0  0  0  0  0  0  0  0  0  0  0  0
    5.8917   -1.2750    0.0000 C   0  0  0  0  0  0  0  0  0  0  0  0
    4.4667   -1.2750    0.0000 C   0  0  0  0  0  0  0  0  0  0  0  0
    7.1000   -2.2000    0.0000 C   0  0  0  0  0  0  0  0  0  0  0  0
    5.8917   -0.5292    0.0000 C   0  0  0  0  0  0  0  0  0  0  0  0
    5.3750   -3.2000    0.0000 O   0  0  0  0  0  0  0  0  0  0  0  0
    2.3292   -1.6875    0.0000 C   0  0  0  0  0  0  0  0  0  0  0  0
    3.7542   -1.6875    0.0000 C   0  0  0  0  0  0  0  0  0  0  0  0
    7.6792   -1.6167    0.0000 C   0  0  0  0  0  0  0  0  0  0  0  0
    7.3125   -2.9917    0.0000 C   0  0  0  0  0  0  0  0  0  0  0  0
    6.5375   -0.1542    0.0000 C   0  0  0  0  0  0  0  0  0  0  0  0
    5.2417   -0.1542    0.0000 C   0  0  0  0  0  0  0  0  0  0  0  0
    1.6125   -1.2750    0.0000 C   0  0  0  0  0  0  0  0  0  0  0  0
    2.3292   -2.5167    0.0000 C   0  0  0  0  0  0  0  0  0  0  0  0
    3.0417   -1.2750    0.0000 C   0  0  0  0  0  0  0  0  0  0  0  0
    0.9000   -2.5167    0.0000 C   0  0  0  0  0  0  0  0  0  0  0  0
    8.6917   -2.6250    0.0000 C   0  0  0  0  0  0  0  0  0  0  0  0
    5.8917    0.9625    0.0000 C   0  0  0  0  0  0  0  0  0  0  0  0
    0.9000   -1.6875    0.0000 C   0  0  0  0  0  0  0  0  0  0  0  0
    8.4750   -1.8250    0.0000 C   0  0  0  0  0  0  0  0  0  0  0  0
    1.6125   -2.9292    0.0000 C   0  0  0  0  0  0  0  0  0  0  0  0
    8.1042   -3.2042    0.0000 C   0  0  0  0  0  0  0  0  0  0  0  0
    6.5375    0.5875    0.0000 C   0  0  0  0  0  0  0  0  0  0  0  0
    5.2417    0.5875    0.0000 C   0  0  0  0  0  0  0  0  0  0  0  0
    9.4917   -2.8375    0.0000 F   0  0  0  0  0  0  0  0  0  0  0  0
    0.1792   -2.9292    0.0000 F   0  0  0  0  0  0  0  0  0  0  0  0
    3.0375   -0.4500    0.0000 O   0  0  0  0  0  0  0  0  0  0  0  0
    5.8875    1.7125    0.0000 O   0  0  0  0  0  0  0  0  0  0  0  0
  2  1  1  0
  3  4  1  0
  4  1  1  1
  3  5  1  6
  6  1  1  0
  4  7  1  0
  8  2  2  0
  9 17  1  0
 10  5  1  0
 11  6  2  0
 12  6  1  0
 13  7  2  0
 14  7  1  0
 15  9  2  0
 16  9  1  0
 17 10  1  0
 18 23  1  0
 19 24  1  0
 20 26  1  0
 21 15  1  0
 22 11  1  0
 23 16  2  0
 24 12  2  0
 25 13  1  0
 26 14  2  0
 27 19  1  0
 28 18  1  0
 29 17  1  0
 30 20  1  0
  3  2  1  0
 22 19  2  0
 25 20  2  0
 21 18  2  0
M  END
>  <ID>  (839) 


>  <MOLENAME>  (839) 
EZETIMIBE

>  <therap>  (839) 
sterol absorption inhibitor

>  <ref>  (839) 
Br J Pharmacol 129:1748 (2000); Expert Opin Invest Drugs 11:1587 (2002)

>  <cas#>  (839) 
163222-33-1

>  <source>  (839) 
synthetic

>  <status>  (839) 
USAN, INN, BAN

>  <tradename>  (839) 
ZETIA

>  <SMILES>  (839) 
O=C1[C@H](CCC(O)c2ccc(F)cc2)[C@@H](c2ccc(O)cc2)N1c1ccc(F)cc1

>  <standardized_failed>  (839) 
False

$$$$

     RDKit          2D

 41 45  0  0  0  0  0  0  0  0999 V2000
    5.2417   -2.3917    0.0000 C   0  0  0  0  0  0  0  0  0  0  0  0
    5.7917   -1.7792    0.0000 C   0  0  0  0  0  0  0  0  0  0  0  0
    4.4917   -2.0625    0.0000 N   0  0  0  0  0  0  0  0  0  0  0  0
    5.3792   -1.0667    0.0000 N   0  0  0  0  0  0  0  0  0  0  0  0
    4.5750   -1.2417    0.0000 C   0  0  0  0  0  0  0  0  0  0  0  0
    2.3667   -5.7750    0.0000 C   0  0  0  0  0  0  0  0  0  0  0  0
    7.3167   -4.3292    0.0000 C   0  0  0  0  0  0  0  0  0  0  0  0
    1.6167   -6.1042    0.0000 N   0  0  0  0  0  0  0  0  0  0  0  0
    1.0625   -5.4917    0.0000 N   0  0  0  0  0  0  0  0  0  0  0  0
    8.4000   -5.1042    0.0000 C   0  0  0  0  0  0  0  0  0  0  0  0
    2.2792   -4.9542    0.0000 N   0  0  0  0  0  0  0  0  0  0  0  0
    7.5750   -5.1125    0.0000 O   0  0  0  0  0  0  0  0  0  0  0  0
    1.4750   -4.7792    0.0000 N   0  0  0  0  0  0  0  0  0  0  0  0
    5.5750   -3.0167    0.0000 C   0  0  0  0  0  0  0  0  0  0  0  0
    8.6542   -4.3167    0.0000 O   0  0  0  0  0  0  0  0  0  0  0  0
    7.9792   -3.8417    0.0000 C   0  0  0  0  0  0  0  0  0  0  0  0
    3.0792   -6.1875    0.0000 C   0  0  0  0  0  0  0  0  0  0  0  0
    6.6167   -1.8625    0.0000 C   0  0  0  0  0  0  0  0  0  0  0  0
    3.7917   -5.7667    0.0000 C   0  0  0  0  0  0  0  0  0  0  0  0
    3.7792   -2.4750    0.0000 C   0  0  0  0  0  0  0  0  0  0  0  0
    6.3542   -3.2667    0.0000 O   0  0  0  0  0  0  0  0  0  0  0  0
    6.5292   -4.0667    0.0000 C   0  0  0  0  0  0  0  0  0  0  0  0
    3.7917   -4.9500    0.0000 C   0  0  0  0  0  0  0  0  0  0  0  0
    8.8792   -5.7750    0.0000 O   0  0  0  0  0  0  0  0  0  0  0  0
    5.1750   -3.6250    0.0000 O   0  0  0  0  0  0  0  0  0  0  0  0
    4.5042   -4.5375    0.0000 C   0  0  0  0  0  0  0  0  0  0  0  0
    3.0792   -4.5417    0.0000 C   0  0  0  0  0  0  0  0  0  0  0  0
    3.7875   -3.3000    0.0000 C   0  0  0  0  0  0  0  0  0  0  0  0
    7.4500   -1.9667    0.0000 O   0  0  0  0  0  0  0  0  0  0  0  0
    3.9542   -0.6917    0.0000 C   0  0  0  0  0  0  0  0  0  0  0  0
    3.0667   -3.7167    0.0000 C   0  0  0  0  0  0  0  0  0  0  0  0
    4.5042   -3.7125    0.0000 C   0  0  0  0  0  0  0  0  0  0  0  0
    7.9792   -3.0167    0.0000 C   0  0  0  0  0  0  0  0  0  0  0  0
    3.0792   -7.0125    0.0000 C   0  0  0  0  0  0  0  0  0  0  0  0
    4.5125   -6.1792    0.0000 C   0  0  0  0  0  0  0  0  0  0  0  0
    7.1000   -1.1917    0.0000 C   0  0  0  0  0  0  0  0  0  0  0  0
    6.9542   -2.6167    0.0000 C   0  0  0  0  0  0  0  0  0  0  0  0
    4.1250    0.1125    0.0000 C   0  0  0  0  0  0  0  0  0  0  0  0
    3.7917   -7.4250    0.0000 C   0  0  0  0  0  0  0  0  0  0  0  0
    4.5125   -7.0125    0.0000 C   0  0  0  0  0  0  0  0  0  0  0  0
    3.5042    0.6625    0.0000 C   0  0  0  0  0  0  0  0  0  0  0  0
  2  1  2  0
  3  1  1  0
  4  2  1  0
  5  3  1  0
  6 17  1  0
  7 22  1  0
  8  6  1  0
  9  8  2  0
 10 12  1  0
 11  6  2  0
 12  7  1  0
 13 11  1  0
 14  1  1  0
 15 16  1  0
 16  7  2  0
 17 19  1  0
 18  2  1  0
 19 23  1  0
 20  3  1  0
 21 14  1  0
 22 21  1  0
 23 26  2  0
 24 10  2  0
 25 14  2  0
 26 32  1  0
 27 31  2  0
 28 20  1  0
 29 18  1  0
 30  5  1  0
 31 28  1  0
 32 28  2  0
 33 16  1  0
 34 17  2  0
 35 19  2  0
 36 18  1  0
 37 18  1  0
 38 30  1  0
 39 40  2  0
 40 35  1  0
 41 38  1  0
  4  5  2  0
 27 23  1  0
 10 15  1  0
 34 39  1  0
 13  9  1  0
M  END
>  <ID>  (840) 


>  <MOLENAME>  (840) 
OLMESARTAN MEDOXOMIL

>  <therap>  (840) 
Angiotensin II inhibitor prodrug, antihypertensive

>  <ref>  (840) 
J Hypertens 15:1809 (1997); Curr Opin Cardiovasc Pulm Renal Invest Drugs 2:378 (2000)

>  <cas#>  (840) 
144689-63-4

>  <source>  (840) 
synthetic; CS-866

>  <status>  (840) 
USAN, INN, BAN

>  <tradename>  (840) 
BENICAR

>  <SMILES>  (840) 
CCCc1nc(C(C)(C)O)c(C(=O)OCc2c(C)oc(=O)o2)n1Cc1ccc(-c2ccccc2-c2n[nH]nn2)cc1

>  <standardized_failed>  (840) 
False

$$$$

     RDKit          2D

 27 29  0  0  0  0  0  0  0  0999 V2000
    3.6917    0.8583    0.0000 N   0  0  0  0  0  0  0  0  0  0  0  0
    2.8667    0.8458    0.0000 C   0  0  0  0  0  0  0  0  0  0  0  0
    2.8792    0.0208    0.0000 C   0  0  0  0  0  0  0  0  0  0  0  0
    3.7000    0.0250    0.0000 C   0  0  0  0  0  0  0  0  0  0  0  0
    0.9292   -0.9625    0.0000 C   0  0  0  0  0  0  0  0  0  0  0  0
    4.4042    1.2833    0.0000 C   0  0  0  0  0  0  0  0  0  0  0  0
    0.1292   -0.7542    0.0000 C   0  0  0  0  0  0  0  0  0  0  0  0
    2.3042   -0.5667    0.0000 N   0  0  0  0  0  0  0  0  0  0  0  0
   -0.5083   -1.2875    0.0000 N   0  0  0  0  0  0  0  0  0  0  0  0
    1.5042   -0.3667    0.0000 C   0  0  0  0  0  0  0  0  0  0  0  0
   -1.2083   -0.8500    0.0000 C   0  0  0  0  0  0  0  0  0  0  0  0
    1.1542   -1.7542    0.0000 C   0  0  0  0  0  0  0  0  0  0  0  0
   -1.0000   -0.0500    0.0000 S   0  0  0  0  0  0  0  0  0  0  0  0
   -0.1833    0.0083    0.0000 C   0  0  0  0  0  0  0  0  0  0  0  0
    4.3917    2.1083    0.0000 C   0  0  0  0  0  0  0  0  0  0  0  0
    4.4167   -0.3792    0.0000 S   0  0  0  0  0  0  0  0  0  0  0  0
    5.1250    0.8708    0.0000 C   0  0  0  0  0  0  0  0  0  0  0  0
    2.3042    1.4583    0.0000 O   0  0  0  0  0  0  0  0  0  0  0  0
    2.1792   -2.7500    0.0000 C   0  0  0  0  0  0  0  0  0  0  0  0
    1.2792    0.4250    0.0000 O   0  0  0  0  0  0  0  0  0  0  0  0
    3.6750    2.5083    0.0000 O   0  0  0  0  0  0  0  0  0  0  0  0
    1.9542   -1.9542    0.0000 C   0  0  0  0  0  0  0  0  0  0  0  0
    1.6042   -3.3417    0.0000 O   0  0  0  0  0  0  0  0  0  0  0  0
   -2.0083   -1.0625    0.0000 N   0  0  0  0  0  0  0  0  0  0  0  0
    5.1292    0.0458    0.0000 C   0  0  0  0  0  0  0  0  0  0  0  0
    5.1042    2.5250    0.0000 O   0  0  0  0  0  0  0  0  0  0  0  0
    2.9792   -2.9542    0.0000 O   0  0  0  0  0  0  0  0  0  0  0  0
  2  1  1  0
  3  4  1  0
  4  1  1  0
  5 10  1  0
  6  1  1  0
  7  5  1  0
  3  8  1  6
  9  7  1  0
 10  8  1  0
 11  9  2  0
 12  5  2  0
 13 14  1  0
 14  7  2  0
 15  6  1  0
  4 16  1  6
 17  6  2  0
 18  2  2  0
 19 22  1  0
 20 10  2  0
 21 15  2  0
 22 12  1  0
 23 19  2  0
 24 11  1  0
 25 17  1  0
 26 15  1  0
 27 19  1  0
  2  3  1  0
 16 25  1  0
 13 11  1  0
M  END
>  <ID>  (841) 


>  <MOLENAME>  (841) 
CEFTIBUTEN

>  <therap>  (841) 
antibacterial

>  <ref>  (841) 
Antimicrob Agents Chemother 32:1576 (1988); J Clin Pharmacol 28:246 (1988)

>  <cas#>  (841) 
97519-39-6

>  <source>  (841) 
semisynthetic

>  <status>  (841) 
USAN, INN, BAN

>  <tradename>  (841) 
CEDAX

>  <SMILES>  (841) 
Nc1nc(/C(=C/CC(=O)O)C(=O)N[C@@H]2C(=O)N3C(C(=O)O)=CCS[C@H]23)cs1

>  <standardized_failed>  (841) 
False

$$$$

     RDKit          2D

 26 28  0  0  0  0  0  0  0  0999 V2000
    7.8917   -2.2917    0.0000 N   0  0  0  0  0  0  0  0  0  0  0  0
    7.0667   -2.3042    0.0000 C   0  0  0  0  0  0  0  0  0  0  0  0
    7.0750   -3.1250    0.0000 C   0  0  0  0  0  0  0  0  0  0  0  0
    7.8917   -3.1167    0.0000 C   0  0  0  0  0  0  0  0  0  0  0  0
    8.6000   -1.8667    0.0000 C   0  0  0  0  0  0  0  0  0  0  0  0
    4.3250   -3.9042    0.0000 C   0  0  0  0  0  0  0  0  0  0  0  0
    5.1250   -4.1042    0.0000 C   0  0  0  0  0  0  0  0  0  0  0  0
    3.6917   -4.4292    0.0000 N   0  0  0  0  0  0  0  0  0  0  0  0
    6.5000   -3.7167    0.0000 N   0  0  0  0  0  0  0  0  0  0  0  0
    5.7000   -3.5167    0.0000 C   0  0  0  0  0  0  0  0  0  0  0  0
    8.6167   -3.5250    0.0000 S   0  0  0  0  0  0  0  0  0  0  0  0
    2.9917   -3.9917    0.0000 C   0  0  0  0  0  0  0  0  0  0  0  0
    9.3167   -2.2750    0.0000 C   0  0  0  0  0  0  0  0  0  0  0  0
    4.0167   -3.1375    0.0000 C   0  0  0  0  0  0  0  0  0  0  0  0
    3.1917   -3.1917    0.0000 S   0  0  0  0  0  0  0  0  0  0  0  0
    8.5917   -1.0417    0.0000 C   0  0  0  0  0  0  0  0  0  0  0  0
    9.3292   -3.1042    0.0000 C   0  0  0  0  0  0  0  0  0  0  0  0
    5.3500   -4.9000    0.0000 N   0  0  0  0  0  0  0  0  0  0  0  0
    6.5042   -1.6917    0.0000 O   0  0  0  0  0  0  0  0  0  0  0  0
   10.0292   -1.8542    0.0000 C   0  0  0  0  0  0  0  0  0  0  0  0
    5.4750   -2.7167    0.0000 O   0  0  0  0  0  0  0  0  0  0  0  0
    7.8667   -0.6375    0.0000 O   0  0  0  0  0  0  0  0  0  0  0  0
    2.1917   -4.2042    0.0000 N   0  0  0  0  0  0  0  0  0  0  0  0
   10.7500   -2.2667    0.0000 C   0  0  0  0  0  0  0  0  0  0  0  0
    9.3000   -0.6167    0.0000 O   0  0  0  0  0  0  0  0  0  0  0  0
    6.1500   -5.1042    0.0000 O   0  0  0  0  0  0  0  0  0  0  0  0
  2  1  1  0
  3  4  1  0
  4  1  1  0
  5  1  1  0
  6  7  1  0
  7 10  1  0
  8  6  1  0
  3  9  1  6
 10  9  1  0
  4 11  1  6
 12  8  2  0
 13  5  2  0
 14  6  2  0
 15 14  1  0
 16  5  1  0
 17 13  1  0
 18  7  2  0
 19  2  2  0
 20 13  1  0
 21 10  2  0
 22 16  2  0
 23 12  1  0
 24 20  2  0
 25 16  1  0
 26 18  1  0
  2  3  1  0
 11 17  1  0
 15 12  1  0
M  END
>  <ID>  (842) 


>  <MOLENAME>  (842) 
CEFDINIR

>  <therap>  (842) 
antibacterial

>  <ref>  (842) 
Pediatr Infect Dis J 19:S141 (2000); 23:834 (2004); Drugs 64:1433 (2004)

>  <cas#>  (842) 
91832-40-5

>  <source>  (842) 
semisynthetic; CL-983, FK-482

>  <status>  (842) 
USAN, INN, BAN

>  <tradename>  (842) 
OMNICEF

>  <SMILES>  (842) 
C=CC1=C(C(=O)O)N2C(=O)[C@@H](NC(=O)/C(=N\O)c3csc(N)n3)[C@H]2SC1

>  <standardized_failed>  (842) 
False

$$$$

     RDKit          2D

 20 20  0  0  0  0  0  0  0  0999 V2000
    3.0542   -1.0875    0.0000 C   0  0  0  0  0  0  0  0  0  0  0  0
    3.0500   -0.2625    0.0000 C   0  0  0  0  0  0  0  0  0  0  0  0
    2.2250   -1.0792    0.0000 C   0  0  0  0  0  0  0  0  0  0  0  0
    2.3292    0.1500    0.0000 N   0  0  0  0  0  0  0  0  0  0  0  0
    3.7625    0.1500    0.0000 C   0  0  0  0  0  0  0  0  0  0  0  0
    1.8125   -0.3667    0.0000 C   0  0  0  0  0  0  0  0  0  0  0  0
    1.8125   -1.7917    0.0000 C   0  0  0  0  0  0  0  0  0  0  0  0
    0.5792   -1.0875    0.0000 C   0  0  0  0  0  0  0  0  0  0  0  0
    3.8792   -1.0917    0.0000 C   0  0  0  0  0  0  0  0  0  0  0  0
    3.0500   -1.9125    0.0000 C   0  0  0  0  0  0  0  0  0  0  0  0
    0.9875   -1.7917    0.0000 C   0  0  0  0  0  0  0  0  0  0  0  0
    0.9875   -0.3750    0.0000 C   0  0  0  0  0  0  0  0  0  0  0  0
   -0.2458   -1.0792    0.0000 Cl  0  0  0  0  0  0  0  0  0  0  0  0
    3.7292    1.0125    0.0000 Cl  0  0  0  0  0  0  0  0  0  0  0  0
    3.8750   -1.9167    0.0000 C   0  0  0  0  0  0  0  0  0  0  0  0
    4.4750   -0.2542    0.0000 C   0  0  0  0  0  0  0  0  0  0  0  0
    1.5500    0.1375    0.0000 C   0  0  0  0  0  0  0  0  0  0  0  0
    2.3292    0.9750    0.0000 C   0  0  0  0  0  0  0  0  0  0  0  0
    4.4750   -1.0792    0.0000 C   0  0  0  0  0  0  0  0  0  0  0  0
    5.1875    0.1583    0.0000 C   0  0  0  0  0  0  0  0  0  0  0  0
  2  1  1  0
  3  1  1  0
  4  2  1  0
  5  2  1  0
  6  3  2  0
  7  3  1  0
  8 11  1  0
  9  1  1  0
 10  1  1  0
 11  7  2  0
 12  6  1  0
 13  8  1  0
 15 10  1  0
 16  5  1  0
 17  4  1  0
 18  4  1  0
 19 16  1  0
 20 16  1  0
  9 15  1  0
 12  8  2  0
M  END
>  <ID>  (843) 


>  <MOLENAME>  (843) 
SIBUTRAMINE HYDROCHLORIDE

>  <therap>  (843) 
anorexic, antidepressant, inhibitor of 5HT, norepinephrine & dopamine uptake

>  <ref>  (843) 
Int J Obes 22:32, Suppl 1:S18 (1998); 

>  <cas#>  (843) 
84485-00-7; 106650-56-0 (base); 125494-59-9 (hydrate)

>  <source>  (843) 
synthetic; BTS-54524

>  <status>  (843) 
USAN, INN, BAN

>  <tradename>  (843) 
MERIDIA

>  <SMILES>  (843) 
CC(C)CC(N(C)C)C1(c2ccc(Cl)cc2)CCC1

>  <standardized_failed>  (843) 
False

$$$$

     RDKit          2D

 31 31  0  0  0  0  0  0  0  0999 V2000
   -0.6333    1.3750    0.0000 N   0  0  0  0  0  0  0  0  0  0  0  0
   -0.1833    1.9958    0.0000 C   0  0  0  0  0  0  0  0  0  0  0  0
   -0.2458    0.7208    0.0000 C   0  0  0  0  0  0  0  0  0  0  0  0
   -1.3708    1.6125    0.0000 C   0  0  0  0  0  0  0  0  0  0  0  0
   -0.6333    2.6125    0.0000 C   0  0  0  0  0  0  0  0  0  0  0  0
    0.5000    2.2958    0.0000 C   0  0  0  0  0  0  0  0  0  0  0  0
    0.9042    0.0625    0.0000 N   0  0  0  0  0  0  0  0  0  0  0  0
   -1.3708    2.3750    0.0000 C   0  0  0  0  0  0  0  0  0  0  0  0
    0.5167    0.7208    0.0000 C   0  0  0  0  0  0  0  0  0  0  0  0
    2.0667    0.7208    0.0000 C   0  0  0  0  0  0  0  0  0  0  0  0
    1.6792    0.0625    0.0000 C   0  0  0  0  0  0  0  0  0  0  0  0
   -0.6333    0.0625    0.0000 O   0  0  0  0  0  0  0  0  0  0  0  0
    0.4917    2.8958    0.0000 O   0  0  0  0  0  0  0  0  0  0  0  0
    1.6792    1.3833    0.0000 O   0  0  0  0  0  0  0  0  0  0  0  0
    2.5167    2.7708    0.0000 C   0  0  0  0  0  0  0  0  0  0  0  0
    1.1917    1.9958    0.0000 O   0  0  0  0  0  0  0  0  0  0  0  0
    2.0542    3.0333    0.0000 N   0  0  0  0  0  0  0  0  0  0  0  0
    2.8417    0.7208    0.0000 O   0  0  0  0  0  0  0  0  0  0  0  0
   -2.0458    1.2333    0.0000 C   0  0  0  0  0  0  0  0  0  0  0  0
   -2.0458    2.7583    0.0000 C   0  0  0  0  0  0  0  0  0  0  0  0
    0.9042    1.3833    0.0000 C   0  0  0  0  0  0  0  0  0  0  0  0
    2.0667   -0.5917    0.0000 C   0  0  0  0  0  0  0  0  0  0  0  0
    2.9667    3.0333    0.0000 C   0  0  0  0  0  0  0  0  0  0  0  0
    2.5167    2.2458    0.0000 C   0  0  0  0  0  0  0  0  0  0  0  0
    2.9667    2.5083    0.0000 C   0  0  0  0  0  0  0  0  0  0  0  0
    3.2292    1.3833    0.0000 C   0  0  0  0  0  0  0  0  0  0  0  0
    2.8417   -0.5917    0.0000 C   0  0  0  0  0  0  0  0  0  0  0  0
   -2.7083    1.6125    0.0000 C   0  0  0  0  0  0  0  0  0  0  0  0
   -2.7083    2.3750    0.0000 C   0  0  0  0  0  0  0  0  0  0  0  0
    4.0042    1.3833    0.0000 C   0  0  0  0  0  0  0  0  0  0  0  0
    3.2292   -1.2542    0.0000 C   0  0  0  0  0  0  0  0  0  0  0  0
  2  1  1  0
  3  1  1  0
  4  1  1  0
  5  2  1  0
  2  6  1  1
  7  9  1  0
  8  4  1  0
  9  3  1  0
 11 10  1  0
 11  7  1  0
 12  3  2  0
 13  6  2  0
 14 10  2  0
 16  6  1  0
 17 15  1  0
 18 10  1  0
  4 19  1  1
  8 20  1  1
  9 21  1  6
 11 22  1  6
 23 15  1  0
 24 15  1  0
 25 15  1  0
 26 18  1  0
 27 22  1  0
 28 19  1  0
 29 28  1  0
 30 26  1  0
 31 27  1  0
  5  8  1  0
 20 29  1  0
M  END
>  <ID>  (844) 


>  <MOLENAME>  (844) 
PERINDOPRIL ERBUMINE

>  <therap>  (844) 
antihypertensive, ACE inhibitor

>  <ref>  (844) 
Br J Clin Pharmacol 23:159 (1987); J Cardiovasc Pharmacol 10suppl:7: 116 (1987)

>  <cas#>  (844) 
107133-36-8; 82834-16-0 (perindopril)

>  <source>  (844) 
synthetic; S-9490, McN-A-28833-109

>  <status>  (844) 
USAN, INN, BAN

>  <tradename>  (844) 
ACEON

>  <SMILES>  (844) 
CCC[C@H](N[C@@H](C)C(=O)N1[C@H](C(=O)O)C[C@@H]2CCCC[C@@H]21)C(=O)OCC

>  <standardized_failed>  (844) 
False

$$$$

     RDKit          2D

 34 34  0  0  0  0  0  0  0  0999 V2000
    3.1917   -1.9667    0.0000 C   0  0  0  0  0  0  0  0  0  0  0  0
    1.7625   -1.9792    0.0000 S   0  0  0  0  0  0  0  0  0  0  0  0
    3.9042   -1.5542    0.0000 N   0  0  0  0  0  0  0  0  0  0  0  0
    3.2000   -2.7917    0.0000 N   0  0  0  0  0  0  0  0  0  0  0  0
    2.4750   -1.5667    0.0000 N   0  0  0  0  0  0  0  0  0  0  0  0
    4.6250   -2.7792    0.0000 C   0  0  0  0  0  0  0  0  0  0  0  0
    4.6167   -1.9542    0.0000 C   0  0  0  0  0  0  0  0  0  0  0  0
    3.9042   -3.1917    0.0000 C   0  0  0  0  0  0  0  0  0  0  0  0
    5.3375   -3.1917    0.0000 C   0  0  0  0  0  0  0  0  0  0  0  0
    9.6125   -3.1792    0.0000 C   0  0  0  0  0  0  0  0  0  0  0  0
    8.9000   -2.7667    0.0000 C   0  0  0  0  0  0  0  0  0  0  0  0
    1.0417   -1.5792    0.0000 O   0  0  0  0  0  0  0  0  0  0  0  0
    1.7667   -2.8042    0.0000 O   0  0  0  0  0  0  0  0  0  0  0  0
    5.3292   -1.5417    0.0000 C   0  0  0  0  0  0  0  0  0  0  0  0
    6.0500   -2.7792    0.0000 C   0  0  0  0  0  0  0  0  0  0  0  0
   10.3250   -2.7667    0.0000 O   0  0  0  0  0  0  0  0  0  0  0  0
    9.6125   -4.0042    0.0000 O   0  0  0  0  0  0  0  0  0  0  0  0
    8.1875   -3.1792    0.0000 C   0  0  0  0  0  0  0  0  0  0  0  0
    7.4750   -2.7792    0.0000 C   0  0  0  0  0  0  0  0  0  0  0  0
    3.9167   -4.0167    0.0000 C   0  0  0  0  0  0  0  0  0  0  0  0
    6.0417   -1.9542    0.0000 C   0  0  0  0  0  0  0  0  0  0  0  0
    5.3250   -0.7292    0.0000 C   0  0  0  0  0  0  0  0  0  0  0  0
    1.0417   -2.3917    0.0000 C   0  0  0  0  0  0  0  0  0  0  0  0
    6.7542   -0.7167    0.0000 C   0  0  0  0  0  0  0  0  0  0  0  0
    6.7625   -3.1917    0.0000 C   0  0  0  0  0  0  0  0  0  0  0  0
    2.4667   -0.7417    0.0000 C   0  0  0  0  0  0  0  0  0  0  0  0
    6.0292   -0.3042    0.0000 C   0  0  0  0  0  0  0  0  0  0  0  0
    6.7542   -1.5417    0.0000 C   0  0  0  0  0  0  0  0  0  0  0  0
    7.4667   -0.3042    0.0000 F   0  0  0  0  0  0  0  0  0  0  0  0
   10.9917   -1.3667    0.0000 Ca  0  0  0  0  0 15  0  0  0  0  0  0
    8.1875   -4.0042    0.0000 O   0  0  0  0  0  0  0  0  0  0  0  0
    6.7625   -4.0167    0.0000 O   0  0  0  0  0  0  0  0  0  0  0  0
    3.2042   -4.4417    0.0000 C   0  0  0  0  0  0  0  0  0  0  0  0
    4.6292   -4.4292    0.0000 C   0  0  0  0  0  0  0  0  0  0  0  0
  2  5  1  0
  3  1  2  0
  4  1  1  0
  5  1  1  0
  6  8  1  0
  7  3  1  0
  8  4  2  0
  9  6  1  0
 10 11  1  0
 11 18  1  0
 12  2  2  0
 13  2  2  0
 14  7  1  0
 15  9  2  0
 16 10  1  0
 17 10  2  0
 18 19  1  0
 19 25  1  0
 20  8  1  0
 21 14  2  0
 22 14  1  0
 23  2  1  0
 24 27  1  0
 25 15  1  0
 26  5  1  0
 27 22  2  0
 28 21  1  0
 29 24  1  0
 18 31  1  6
 25 32  1  6
 33 20  1  0
 34 20  1  0
  6  7  2  0
 24 28  2  0
M  CHG  2  16  -1  30   2
M  END
>  <ID>  (845) 


>  <MOLENAME>  (845) 
ROSUVASTATIN CALCIUM

>  <therap>  (845) 
antihyperlipidemic

>  <ref>  (845) 
Clin Pharmacol Ther 78:330 (2005); Am J Cardiol 97:229 (2006)

>  <cas#>  (845) 
287714-14-4, 147098-20-2(Ca salt)

>  <source>  (845) 
synthetic; S-4532

>  <status>  (845) 
USAN, INN, BAN

>  <tradename>  (845) 
CRESTOR

>  <SMILES>  (845) 
CC(C)c1nc(N(C)S(C)(=O)=O)nc(-c2ccc(F)cc2)c1/C=C/[C@@H](O)C[C@@H](O)CC(=O)O

>  <standardized_failed>  (845) 
False

$$$$

     RDKit          2D

 38 39  0  0  0  0  0  0  0  0999 V2000
    9.0250   -5.5583    0.0000 Na  0  0  0  0  0 15  0  0  0  0  0  0
    9.7125   -0.2167    0.0000 Na  0  0  0  0  0 15  0  0  0  0  0  0
   11.1698   -2.0567    0.0000 C   0  0  0  0  0  0  0  0  0  0  0  0
   11.8319   -1.5665    0.0000 N   0  0  0  0  0  0  0  0  0  0  0  0
   11.4340   -2.8380    0.0000 N   0  0  0  0  0  0  0  0  0  0  0  0
   12.2548   -2.8292    0.0000 N   0  0  0  0  0  0  0  0  0  0  0  0
   12.5057   -2.0525    0.0000 N   0  0  0  0  0  0  0  0  0  0  0  0
   11.8224   -0.7416    0.0000 C   0  0  0  0  0  0  0  0  0  0  0  0
    6.6708   -4.2917    0.0000 C   0  0  0  0  0  0  0  0  0  0  0  0
    6.2583   -5.0083    0.0000 C   0  0  0  0  0  0  0  0  0  0  0  0
    6.6708   -5.7208    0.0000 C   0  0  0  0  0  0  0  0  0  0  0  0
    5.4333   -5.0083    0.0000 C   0  0  0  0  0  0  0  0  0  0  0  0
    7.5000   -4.2917    0.0000 O   0  0  0  0  0  0  0  0  0  0  0  0
    7.5000   -5.7208    0.0000 O   0  0  0  0  0  0  0  0  0  0  0  0
    6.2583   -6.4375    0.0000 O   0  0  0  0  0  0  0  0  0  0  0  0
    5.0208   -4.2917    0.0000 C   0  0  0  0  0  0  0  0  0  0  0  0
    5.0208   -5.7208    0.0000 C   0  0  0  0  0  0  0  0  0  0  0  0
    3.7792   -5.0083    0.0000 C   0  0  0  0  0  0  0  0  0  0  0  0
    4.1917   -5.7208    0.0000 C   0  0  0  0  0  0  0  0  0  0  0  0
    4.1917   -4.2917    0.0000 C   0  0  0  0  0  0  0  0  0  0  0  0
    2.9542   -5.0083    0.0000 O   0  0  0  0  0  0  0  0  0  0  0  0
    6.6500   -2.5167    0.0000 C   0  0  0  0  0  0  0  0  0  0  0  0
    7.4083   -1.7667    0.0000 N   0  0  0  0  0  0  0  0  0  0  0  0
    6.6500   -1.7667    0.0000 C   0  0  0  0  0  0  0  0  0  0  0  0
    7.4083   -2.5167    0.0000 C   0  0  0  0  0  0  0  0  0  0  0  0
    6.4250   -3.4292    0.0000 N   0  0  0  0  0  0  0  0  0  0  0  0
    8.0500   -1.3875    0.0000 C   0  0  0  0  0  0  0  0  0  0  0  0
    8.7083   -1.7667    0.0000 C   0  0  0  0  0  0  0  0  0  0  0  0
    8.0500   -2.8917    0.0000 O   0  0  0  0  0  0  0  0  0  0  0  0
    8.1250   -0.8250    0.0000 C   0  0  0  0  0  0  0  0  0  0  0  0
   10.2417   -1.7458    0.0000 S   0  0  0  0  0  0  0  0  0  0  0  0
    8.7083   -2.5167    0.0000 C   0  0  0  0  0  0  0  0  0  0  0  0
    6.1208   -1.2292    0.0000 O   0  0  0  0  0  0  0  0  0  0  0  0
    9.3583   -1.3917    0.0000 C   0  0  0  0  0  0  0  0  0  0  0  0
    5.8333   -2.2458    0.0000 O   0  0  0  0  0  0  0  0  0  0  0  0
    8.6250   -0.4792    0.0000 O   0  0  0  0  0  0  0  0  0  0  0  0
    7.4708   -0.4792    0.0000 O   0  0  0  0  0  0  0  0  0  0  0  0
    5.0208   -2.7125    0.0000 C   0  0  0  0  0  0  0  0  0  0  0  0
 18 19  2  0
 19 17  1  0
 20 16  2  0
 21 18  1  0
 18 20  1  0
  5  3  2  0
  6  5  1  0
  7  4  1  0
  8  4  1  0
  7  6  2  0
  4  3  1  0
 10  9  1  0
 11 10  1  0
 12 10  1  0
 13  9  2  0
 14 11  1  0
 15 11  2  0
 16 12  1  0
 17 12  2  0
 23 25  1  0
 24 22  1  0
 25 22  1  0
 22 26  1  6
 27 23  1  0
 28 32  1  0
 25 29  1  6
 30 27  1  0
 31 34  1  0
 32 29  1  0
 33 24  2  0
 34 28  1  0
 22 35  1  0
 36 30  1  0
 37 30  2  0
 38 35  1  0
 24 23  1  0
 28 27  2  0
  9 26  1  0
  3 31  1  0
M  CHG  4   1   1   2   1  14  -1  36  -1
M  END
>  <ID>  (846) 


>  <MOLENAME>  (846) 
MOXALACTAM DISODIUM

>  <therap>  (846) 
antibacterial

>  <ref>  (846) 
Drugs (1983), 26(4), 279-333; Med. Res. Rev. (1981), 1(3), 217-48; Antimicrob. Agents Chemother. (1979), 16(6), 864-8

>  <cas#>  (846) 
64953-12-4 

>  <source>  (846) 
semisynthetic; LY-127935

>  <status>  (846) 
USAN, INN, BAN

>  <tradename>  (846) 
MOXAM

>  <SMILES>  (846) 
CO[C@@]1(NC(=O)C(C(=O)O)c2ccc(O)cc2)C(=O)N2C(C(=O)O)=C(CSc3nnnn3C)CO[C@@H]21

>  <standardized_failed>  (846) 
False

$$$$

     RDKit          2D

 35 38  0  0  0  0  0  0  0  0999 V2000
    5.1375   -0.0542    0.0000 C   0  0  0  0  0  0  0  0  0  0  0  0
    5.9250    0.1958    0.0000 C   0  0  0  0  0  0  0  0  0  0  0  0
    2.9917   -1.3000    0.0000 C   0  0  0  0  0  0  0  0  0  0  0  0
    4.4250   -1.3000    0.0000 C   0  0  0  0  0  0  0  0  0  0  0  0
    5.1375   -0.8875    0.0000 C   0  0  0  0  0  0  0  0  0  0  0  0
    3.7042   -0.8875    0.0000 C   0  0  0  0  0  0  0  0  0  0  0  0
    2.9917   -2.1250    0.0000 C   0  0  0  0  0  0  0  0  0  0  0  0
    4.4167    0.3583    0.0000 C   0  0  0  0  0  0  0  0  0  0  0  0
    3.7042   -0.0542    0.0000 C   0  0  0  0  0  0  0  0  0  0  0  0
    2.2792   -0.8875    0.0000 C   0  0  0  0  0  0  0  0  0  0  0  0
    6.2625    0.9500    0.0000 C   0  0  0  0  0  0  0  0  0  0  0  0
    2.2792   -2.5375    0.0000 C   0  0  0  0  0  0  0  0  0  0  0  0
    6.7500    0.1583    0.0000 O   0  0  0  0  0  0  0  0  0  0  0  0
    7.4625   -0.2500    0.0000 C   0  0  0  0  0  0  0  0  0  0  0  0
    6.4042   -0.4667    0.0000 C   0  0  0  0  0  0  0  0  0  0  0  0
    5.9250   -1.1417    0.0000 C   0  0  0  0  0  0  0  0  0  0  0  0
    4.4250   -2.1250    0.0000 C   0  0  0  0  0  0  0  0  0  0  0  0
    1.5625   -1.3000    0.0000 C   0  0  0  0  0  0  0  0  0  0  0  0
    1.5625   -2.1250    0.0000 C   0  0  0  0  0  0  0  0  0  0  0  0
    3.7042   -2.5375    0.0000 C   0  0  0  0  0  0  0  0  0  0  0  0
    4.4667    2.2042    0.0000 C   0  0  0  0  0  0  0  0  0  0  0  0
    5.7750    1.6208    0.0000 C   0  0  0  0  0  0  0  0  0  0  0  0
    7.4625   -1.0750    0.0000 O   0  0  0  0  0  0  0  0  0  0  0  0
    7.0792    1.0375    0.0000 O   0  0  0  0  0  0  0  0  0  0  0  0
    4.9500    1.5333    0.0000 O   0  0  0  0  0  0  0  0  0  0  0  0
    4.8000    2.9542    0.0000 O   0  0  0  0  0  0  0  0  0  0  0  0
    0.8417   -2.5417    0.0000 O   0  0  0  0  0  0  0  0  0  0  0  0
    5.1375    0.7708    0.0000 C   0  0  0  0  0  0  0  0  0  0  0  0
    2.9875    0.3708    0.0000 O   0  0  0  0  0  0  0  0  0  0  0  0
    8.1750    0.1625    0.0000 O   0  0  0  0  0  0  0  0  0  0  0  0
    2.9917   -0.4667    0.0000 C   0  0  0  0  0  0  0  0  0  0  0  0
    3.6500    2.1208    0.0000 C   0  0  0  0  0  0  0  0  0  0  0  0
    8.8875   -0.2417    0.0000 C   0  0  0  0  0  0  0  0  0  0  0  0
    3.1667    2.7833    0.0000 C   0  0  0  0  0  0  0  0  0  0  0  0
    9.6000    0.1708    0.0000 C   0  0  0  0  0  0  0  0  0  0  0  0
  2  1  1  0
  3  6  1  0
  4  5  1  0
  5  1  1  0
  6  9  1  0
  7  3  1  0
  8  1  1  0
  9  8  1  0
 10  3  1  0
  2 11  1  0
 12  7  2  0
  2 13  1  6
 14 13  1  0
 15  2  1  0
 16  5  1  0
 17  4  1  0
 18 10  2  0
 19 12  1  0
 20 17  1  0
 21 25  1  0
 22 11  1  0
 23 14  2  0
 24 11  2  0
 25 22  1  0
 26 21  2  0
 27 19  2  0
  1 28  1  1
  9 29  1  1
 30 14  1  0
  3 31  1  1
 32 21  1  0
 33 30  1  0
 34 32  1  0
 35 33  1  0
 15 16  1  0
  6  4  1  0
 20  7  1  0
 18 19  1  0
M  END
>  <ID>  (847) 


>  <MOLENAME>  (847) 
PREDNICARBATE

>  <therap>  (847) 
antiinflammatory, glucocorticoid

>  <ref>  (847) 
Arzneim Forsch 32:633 (1982); 35:1753 (1985); Z Hautkrankhr 61 Suppl 1:1 (1986)

>  <cas#>  (847) 
73771-04-7

>  <source>  (847) 
semisynthetic; HOE-777

>  <status>  (847) 
USP, INN, BAN

>  <tradename>  (847) 
DERMATOP

>  <SMILES>  (847) 
CCOC(=O)O[C@]1(C(=O)COC(=O)CC)CCC2C3CCC4=CC(=O)C=C[C@]4(C)C3[C@@H](O)C[C@@]21C

>  <standardized_failed>  (847) 
False

$$$$

     RDKit          2D

 27 29  0  0  0  0  0  0  0  0999 V2000
    4.4625    0.3250    0.0000 N   0  0  0  0  0  0  0  0  0  0  0  0
    3.9125   -0.2875    0.0000 N   0  0  0  0  0  0  0  0  0  0  0  0
    4.0500    1.0458    0.0000 C   0  0  0  0  0  0  0  0  0  0  0  0
    3.1542    0.0458    0.0000 C   0  0  0  0  0  0  0  0  0  0  0  0
    3.2417    0.8708    0.0000 C   0  0  0  0  0  0  0  0  0  0  0  0
    4.6125   -3.5125    0.0000 S   0  0  0  0  0  0  0  0  0  0  0  0
    2.4417   -0.3667    0.0000 C   0  0  0  0  0  0  0  0  0  0  0  0
    4.4375   -2.7042    0.0000 C   0  0  0  0  0  0  0  0  0  0  0  0
    4.0875   -1.0917    0.0000 C   0  0  0  0  0  0  0  0  0  0  0  0
    4.3792    1.7958    0.0000 C   0  0  0  0  0  0  0  0  0  0  0  0
    1.7292    0.0458    0.0000 C   0  0  0  0  0  0  0  0  0  0  0  0
    1.0167   -0.3750    0.0000 C   0  0  0  0  0  0  0  0  0  0  0  0
    3.7917   -3.7750    0.0000 O   0  0  0  0  0  0  0  0  0  0  0  0
    5.3542   -3.2750    0.0000 O   0  0  0  0  0  0  0  0  0  0  0  0
    4.8250   -4.3042    0.0000 N   0  0  0  0  0  0  0  0  0  0  0  0
    1.0167   -1.2000    0.0000 C   0  0  0  0  0  0  0  0  0  0  0  0
    2.4417   -1.2000    0.0000 C   0  0  0  0  0  0  0  0  0  0  0  0
    5.0500   -2.1417    0.0000 C   0  0  0  0  0  0  0  0  0  0  0  0
    3.6500   -2.4542    0.0000 C   0  0  0  0  0  0  0  0  0  0  0  0
    4.8667   -1.3417    0.0000 C   0  0  0  0  0  0  0  0  0  0  0  0
    3.4750   -1.6417    0.0000 C   0  0  0  0  0  0  0  0  0  0  0  0
    1.7292   -1.6125    0.0000 C   0  0  0  0  0  0  0  0  0  0  0  0
    0.3042    0.0375    0.0000 F   0  0  0  0  0  0  0  0  0  0  0  0
    3.8917    2.4583    0.0000 F   0  0  0  0  0  0  0  0  0  0  0  0
    5.2000    1.8833    0.0000 F   0  0  0  0  0  0  0  0  0  0  0  0
    0.3042   -1.6125    0.0000 O   0  0  0  0  0  0  0  0  0  0  0  0
   -0.4083   -1.2000    0.0000 C   0  0  0  0  0  0  0  0  0  0  0  0
  2  1  1  0
  3  1  2  0
  4  2  1  0
  5  3  1  0
  6  8  1  0
  7  4  1  0
  8 19  2  0
  9  2  1  0
 10  3  1  0
 11  7  2  0
 12 11  1  0
 13  6  2  0
 14  6  2  0
 15  6  1  0
 16 22  1  0
 17  7  1  0
 18 20  2  0
 19 21  1  0
 20  9  1  0
 21  9  2  0
 22 17  2  0
 23 12  1  0
 24 10  1  0
 25 10  1  0
 26 16  1  0
 27 26  1  0
  5  4  2  0
  8 18  1  0
 12 16  2  0
M  END
>  <ID>  (848) 


>  <MOLENAME>  (848) 
DERACOXIB

>  <therap>  (848) 
antiinflammatory, antiarthritic, COX-2 inhibitor

>  <ref>  (848) 
molecules 5:945 (2000), Vet Ther 3:453 (2002)

>  <cas#>  (848) 
169590-41-4

>  <source>  (848) 
synthetic

>  <status>  (848) 
USAN, INN

>  <tradename>  (848) 
DERAMAXX

>  <SMILES>  (848) 
COc1c(F)cc(-c2cc(C(F)F)nn2-c2ccc(S(N)(=O)=O)cc2)cc1

>  <standardized_failed>  (848) 
False

$$$$

     RDKit          2D

 27 30  0  0  0  0  0  0  0  0999 V2000
   -1.8833   -2.3375    0.0000 N   0  0  0  0  0  0  0  0  0  0  0  0
   -2.1708   -3.6292    0.0000 N   0  0  0  0  0  0  0  0  0  0  0  0
   -2.4958   -2.8792    0.0000 N   0  0  0  0  0  0  0  0  0  0  0  0
   -1.3500   -3.5500    0.0000 N   0  0  0  0  0  0  0  0  0  0  0  0
   -1.1750   -2.7500    0.0000 C   0  0  0  0  0  0  0  0  0  0  0  0
    5.2542   -3.9875    0.0000 N   0  0  0  0  0  0  0  0  0  0  0  0
    4.5417   -3.5750    0.0000 C   0  0  0  0  0  0  0  0  0  0  0  0
    5.9667   -3.5667    0.0000 C   0  0  0  0  0  0  0  0  0  0  0  0
    4.5417   -2.7500    0.0000 C   0  0  0  0  0  0  0  0  0  0  0  0
   -1.9708   -1.5125    0.0000 C   0  0  0  0  0  0  0  0  0  0  0  0
    3.8250   -2.3375    0.0000 C   0  0  0  0  0  0  0  0  0  0  0  0
    6.6875   -3.9792    0.0000 O   0  0  0  0  0  0  0  0  0  0  0  0
    3.8250   -3.9917    0.0000 C   0  0  0  0  0  0  0  0  0  0  0  0
    5.2500   -2.3292    0.0000 C   0  0  0  0  0  0  0  0  0  0  0  0
    5.9667   -2.7417    0.0000 C   0  0  0  0  0  0  0  0  0  0  0  0
    3.1125   -2.7500    0.0000 C   0  0  0  0  0  0  0  0  0  0  0  0
    3.1125   -3.5792    0.0000 C   0  0  0  0  0  0  0  0  0  0  0  0
   -0.4583   -2.3375    0.0000 C   0  0  0  0  0  0  0  0  0  0  0  0
    2.3917   -2.3375    0.0000 O   0  0  0  0  0  0  0  0  0  0  0  0
   -1.2958   -1.0292    0.0000 C   0  0  0  0  0  0  0  0  0  0  0  0
   -2.7125   -1.1750    0.0000 C   0  0  0  0  0  0  0  0  0  0  0  0
    1.6792   -2.7500    0.0000 C   0  0  0  0  0  0  0  0  0  0  0  0
    0.2542   -2.7500    0.0000 C   0  0  0  0  0  0  0  0  0  0  0  0
    0.9667   -2.3375    0.0000 C   0  0  0  0  0  0  0  0  0  0  0  0
   -2.7958   -0.3500    0.0000 C   0  0  0  0  0  0  0  0  0  0  0  0
   -1.3708   -0.2167    0.0000 C   0  0  0  0  0  0  0  0  0  0  0  0
   -2.1208    0.1333    0.0000 C   0  0  0  0  0  0  0  0  0  0  0  0
  2  3  2  0
  3  1  1  0
  4  5  2  0
  5  1  1  0
  6  7  1  0
  7 13  2  0
  8  6  1  0
  9 11  2  0
 10  1  1  0
 11 16  1  0
 12  8  2  0
 13 17  1  0
 14  9  1  0
 15 14  1  0
 16 19  1  0
 17 16  2  0
 18  5  1  0
 19 22  1  0
 20 10  1  0
 21 10  1  0
 22 24  1  0
 23 18  1  0
 24 23  1  0
 25 21  1  0
 26 20  1  0
 27 25  1  0
  2  4  1  0
 26 27  1  0
  9  7  1  0
  8 15  1  0
M  END
>  <ID>  (849) 


>  <MOLENAME>  (849) 
CILOSTAZOL

>  <therap>  (849) 
phosphodiesterase inhibitor

>  <ref>  (849) 
Am J Cardiol 84:511 (1999); Circulation 100:21 (1999); Drugs Aging 14:63 (1999)

>  <cas#>  (849) 
73963-72-1

>  <source>  (849) 
synthetic; OPC-13013

>  <status>  (849) 
USAN, INN, BAN, JAN

>  <tradename>  (849) 
PLETAL

>  <SMILES>  (849) 
O=C1CCc2cc(OCCCCc3nnnn3C3CCCCC3)ccc2N1

>  <standardized_failed>  (849) 
False

$$$$

     RDKit          2D

 31 32  0  0  0  0  0  0  0  0999 V2000
    4.0125   -1.2125    0.0000 N   0  0  0  0  0  0  0  0  0  0  0  0
    4.0042   -2.0375    0.0000 C   0  0  0  0  0  0  0  0  0  0  0  0
    3.3000   -0.8000    0.0000 C   0  0  0  0  0  0  0  0  0  0  0  0
    3.3000    0.0250    0.0000 N   0  0  0  0  0  0  0  0  0  0  0  0
    4.6667   -2.5250    0.0000 C   0  0  0  0  0  0  0  0  0  0  0  0
    3.3375   -2.5125    0.0000 O   0  0  0  0  0  0  0  0  0  0  0  0
    0.5000   -3.2750    0.0000 P   0  0  0  0  0  0  0  0  0  0  0  0
    1.9292   -3.2792    0.0000 P   0  0  0  0  0  0  0  0  0  0  0  0
    1.2167   -2.8667    0.0000 O   0  0  0  0  0  0  0  0  0  0  0  0
    4.7292   -0.8000    0.0000 C   0  0  0  0  0  0  0  0  0  0  0  0
    3.5792   -3.2917    0.0000 C   0  0  0  0  0  0  0  0  0  0  0  0
    4.4042   -3.3042    0.0000 C   0  0  0  0  0  0  0  0  0  0  0  0
    4.7292    0.0333    0.0000 C   0  0  0  0  0  0  0  0  0  0  0  0
    4.0125    0.4458    0.0000 C   0  0  0  0  0  0  0  0  0  0  0  0
    3.1667   -4.0042    0.0000 C   0  0  0  0  0  0  0  0  0  0  0  0
    2.5792   -1.2125    0.0000 O   0  0  0  0  0  0  0  0  0  0  0  0
    2.3417   -4.0000    0.0000 O   0  0  0  0  0  0  0  0  0  0  0  0
    0.4917   -2.4500    0.0000 O   0  0  0  0  0  0  0  0  0  0  0  0
    0.4917   -4.1000    0.0000 O   0  0  0  0  0  0  0  0  0  0  0  0
    2.5167   -2.6917    0.0000 O   0  0  0  0  0  0  0  0  0  0  0  0
   -2.3583   -3.2625    0.0000 N   0  0  0  0  0  0  0  0  0  0  0  0
   -0.2125   -2.8625    0.0000 O   0  0  0  0  0  0  0  0  0  0  0  0
    5.4917   -2.5250    0.0000 O   0  0  0  0  0  0  0  0  0  0  0  0
    1.3417   -3.8625    0.0000 O   0  0  0  0  0  0  0  0  0  0  0  0
    4.0042    1.2708    0.0000 N   0  0  0  0  0  0  0  0  0  0  0  0
    4.9875   -3.8875    0.0000 O   0  0  0  0  0  0  0  0  0  0  0  0
   -0.9333   -3.2667    0.0000 C   0  0  0  0  0  0  0  0  0  0  0  0
   -1.6458   -2.8542    0.0000 C   0  0  0  0  0  0  0  0  0  0  0  0
   -3.0708   -2.8500    0.0000 C   0  0  0  0  0  0  0  0  0  0  0  0
   -2.3625   -4.0875    0.0000 C   0  0  0  0  0  0  0  0  0  0  0  0
   -3.0750   -3.6667    0.0000 C   0  0  0  0  0  0  0  0  0  0  0  0
  2  1  1  0
  3  1  1  0
  4  3  1  0
  5  2  1  0
  6  2  1  0
  7  9  1  0
  8 17  1  0
  9  8  1  0
 10  1  1  0
 11  6  1  0
 12  5  1  0
 13 10  2  0
 14 13  1  0
 11 15  1  1
 16  3  2  0
 17 15  1  0
 18  7  1  0
 19  7  2  0
 20  8  2  0
 21 28  1  0
 22  7  1  0
  5 23  1  6
 24  8  1  0
 25 14  1  0
 12 26  1  6
 27 22  1  0
 28 27  1  0
 29 21  1  0
 30 21  1  0
 31 21  1  0
  4 14  2  0
 11 12  1  0
M  CHG  2  18  -1  21   1
M  END
>  <ID>  (850) 


>  <MOLENAME>  (850) 
CITICOLINE

>  <therap>  (850) 
cognition enhancer, phosphocholine cytidyltransferase activator

>  <ref>  (850) 
J Neurochem 65: 889 (1995); Neurosci Lett 273: 163 (1999)

>  <cas#>  (850) 
987-78-0

>  <source>  (850) 
cytidine-5'-diphosphocholine

>  <status>  (850) 
USAN, INN, JAN

>  <tradename>  (850) 
CERAXON

>  <SMILES>  (850) 
C[N+](C)(C)CCOP(=O)([O-])OP(=O)(O)OC[C@H]1OC(n2ccc(N)nc2=O)[C@H](O)[C@@H]1O

>  <standardized_failed>  (850) 
False

$$$$

     RDKit          2D

 37 40  0  0  0  0  0  0  0  0999 V2000
    6.1000   -3.5292    0.0000 C   0  0  0  0  0  0  0  0  0  0  0  0
    4.6792   -2.6917    0.0000 C   0  0  0  0  0  0  0  0  0  0  0  0
    3.2500   -2.6917    0.0000 C   0  0  0  0  0  0  0  0  0  0  0  0
    6.8042   -3.9417    0.0000 O   0  0  0  0  0  0  0  0  0  0  0  0
    5.3917   -2.2792    0.0000 C   0  0  0  0  0  0  0  0  0  0  0  0
    3.2500   -3.5167    0.0000 C   0  0  0  0  0  0  0  0  0  0  0  0
    8.2167   -4.7667    0.0000 C   0  0  0  0  0  0  0  0  0  0  0  0
    6.1042   -2.7000    0.0000 C   0  0  0  0  0  0  0  0  0  0  0  0
    5.3792   -3.9292    0.0000 C   0  0  0  0  0  0  0  0  0  0  0  0
    2.5375   -3.9250    0.0000 C   0  0  0  0  0  0  0  0  0  0  0  0
    8.9292   -5.1667    0.0000 C   0  0  0  0  0  0  0  0  0  0  0  0
    4.6667   -3.5167    0.0000 O   0  0  0  0  0  0  0  0  0  0  0  0
    6.8000   -4.7625    0.0000 C   0  0  0  0  0  0  0  0  0  0  0  0
    2.5375   -2.2750    0.0000 O   0  0  0  0  0  0  0  0  0  0  0  0
    3.9667   -2.2792    0.0000 O   0  0  0  0  0  0  0  0  0  0  0  0
    1.8292   -3.5167    0.0000 C   0  0  0  0  0  0  0  0  0  0  0  0
    7.5042   -5.1792    0.0000 O   0  0  0  0  0  0  0  0  0  0  0  0
    9.6417   -4.7542    0.0000 C   0  0  0  0  0  0  0  0  0  0  0  0
    1.8292   -2.6917    0.0000 C   0  0  0  0  0  0  0  0  0  0  0  0
    8.2042   -3.9417    0.0000 C   0  0  0  0  0  0  0  0  0  0  0  0
    9.6375   -3.9292    0.0000 C   0  0  0  0  0  0  0  0  0  0  0  0
    5.3792   -4.7500    0.0000 C   0  0  0  0  0  0  0  0  0  0  0  0
    8.9167   -3.5250    0.0000 C   0  0  0  0  0  0  0  0  0  0  0  0
    6.0792   -5.1667    0.0000 C   0  0  0  0  0  0  0  0  0  0  0  0
    5.3917   -1.4542    0.0000 N   0  0  0  0  0  0  0  0  0  0  0  0
    1.1125   -3.9292    0.0000 N   0  0  0  0  0  0  0  0  0  0  0  0
    3.9667   -3.9292    0.0000 O   0  0  0  0  0  0  0  0  0  0  0  0
    6.8167   -2.2917    0.0000 O   0  0  0  0  0  0  0  0  0  0  0  0
    2.5375   -4.7500    0.0000 O   0  0  0  0  0  0  0  0  0  0  0  0
    8.9417   -5.9917    0.0000 O   0  0  0  0  0  0  0  0  0  0  0  0
    7.4917   -3.5292    0.0000 N   0  0  0  0  0  0  0  0  0  0  0  0
   10.3500   -3.5167    0.0000 N   0  0  0  0  0  0  0  0  0  0  0  0
   10.3542   -5.1667    0.0000 O   0  0  0  0  0  0  0  0  0  0  0  0
    6.0750   -5.9917    0.0000 N   0  0  0  0  0  0  0  0  0  0  0  0
    1.1125   -2.2792    0.0000 C   0  0  0  0  0  0  0  0  0  0  0  0
    1.1042   -1.4542    0.0000 O   0  0  0  0  0  0  0  0  0  0  0  0
    6.1042   -1.0417    0.0000 C   0  0  0  0  0  0  0  0  0  0  0  0
  2 12  1  0
  3 15  1  6
  1  4  1  1
  5  8  1  0
  6  3  1  0
  7 17  1  6
  8  1  1  0
  9  1  1  0
 10  6  1  0
 11  7  1  0
 12  9  1  0
 13  4  1  0
 14  3  1  0
  2 15  1  6
 16 19  1  0
 13 17  1  1
 18 11  1  0
 19 14  1  0
 20  7  1  0
 21 23  1  0
  9 22  1  6
 23 20  1  0
 24 22  1  0
  5 25  1  1
 16 26  1  6
  6 27  1  6
  8 28  1  1
 10 29  1  1
 11 30  1  1
 20 31  1  1
 21 32  1  1
 18 33  1  6
 24 34  1  6
 19 35  1  1
 36 35  1  0
 37 25  1  0
  2  5  1  0
 13 24  1  0
 18 21  1  0
 16 10  1  0
M  END
>  <ID>  (851) 


>  <MOLENAME>  (851) 
APRAMYCIN SULFATE

>  <therap>  (851) 
antibacterial; LD50(iv) 280mg/kg(mouse)

>  <ref>  (851) 
J Org Chem 41: 2087 (1976); 43: 1430 (1978); Eur J Biochem 99: 623 (1979); Antimicrobial Agents Chemother 14: 69 (1978)

>  <cas#>  (851) 
65710-07-8

>  <source>  (851) 
Streptomyces tenebrarius, Saccharomyces porispora hiltus; EL-857

>  <status>  (851) 
USAN, INN, BAN

>  <tradename>  (851) 
nan

>  <SMILES>  (851) 
CN[C@@H]1[C@@H](O[C@H]2O[C@H](CO)[C@@H](N)[C@H](O)[C@H]2O)O[C@H]2C[C@@H](N)[C@H](O[C@@H]3[C@@H](N)C[C@@H](N)[C@H](O)[C@H]3O)O[C@@H]2[C@@H]1O

>  <standardized_failed>  (851) 
False

$$$$

     RDKit          2D

 21 22  0  0  0  0  0  0  0  0999 V2000
    1.3875   -1.8625    0.0000 C   0  0  0  0  0  0  0  0  0  0  0  0
    2.1042   -2.2750    0.0000 C   0  0  0  0  0  0  0  0  0  0  0  0
    2.1042   -3.1000    0.0000 C   0  0  0  0  0  0  0  0  0  0  0  0
    1.3917   -1.0292    0.0000 C   0  0  0  0  0  0  0  0  0  0  0  0
    2.8167   -3.5042    0.0000 C   0  0  0  0  0  0  0  0  0  0  0  0
    2.8167   -4.3292    0.0000 C   0  0  0  0  0  0  0  0  0  0  0  0
    2.8292   -1.8625    0.0000 C   0  0  0  0  0  0  0  0  0  0  0  0
    2.1042   -0.6042    0.0000 C   0  0  0  0  0  0  0  0  0  0  0  0
    2.1000   -4.7417    0.0000 C   0  0  0  0  0  0  0  0  0  0  0  0
    1.3875   -3.5042    0.0000 C   0  0  0  0  0  0  0  0  0  0  0  0
    2.8292   -1.0292    0.0000 C   0  0  0  0  0  0  0  0  0  0  0  0
    1.3792   -4.3292    0.0000 C   0  0  0  0  0  0  0  0  0  0  0  0
    2.1042    0.2208    0.0000 N   0  0  0  0  0  0  0  0  0  0  0  0
    3.5292   -4.7417    0.0000 Cl  0  0  0  0  0  0  0  0  0  0  0  0
    2.0917   -5.5667    0.0000 Cl  0  0  0  0  0  0  0  0  0  0  0  0
    3.9875   -0.4667    0.0000 Cl  0  0  0  0  0  0  0  0  0  0  0  0
    0.6750   -2.2667    0.0000 C   0  0  0  0  0  0  0  0  0  0  0  0
    0.6750   -0.6167    0.0000 C   0  0  0  0  0  0  0  0  0  0  0  0
    2.8250    0.6333    0.0000 C   0  0  0  0  0  0  0  0  0  0  0  0
   -0.0375   -1.8542    0.0000 C   0  0  0  0  0  0  0  0  0  0  0  0
   -0.0375   -1.0292    0.0000 C   0  0  0  0  0  0  0  0  0  0  0  0
  2  1  1  0
  2  3  1  0
  4  1  2  0
  5  3  2  0
  6  5  1  0
  2  7  1  1
  8  4  1  0
  9 12  1  0
 10  3  1  0
 11  8  1  0
 12 10  2  0
  8 13  1  1
 14  6  1  0
 15  9  1  0
 17  1  1  0
 18  4  1  0
 19 13  1  0
 20 17  2  0
 21 20  1  0
 21 18  2  0
 11  7  1  0
  9  6  2  0
M  END
>  <ID>  (852) 


>  <MOLENAME>  (852) 
SERTRALINE HYDROCHLORIDE

>  <therap>  (852) 
antidepressant, 5HT uptake inhibitor

>  <ref>  (852) 
Drugs 44:604 (1992); JAMA 283:1837 (2000)

>  <cas#>  (852) 
79559-97-0; 79617-96-2(base)

>  <source>  (852) 
synthetic

>  <status>  (852) 
USAN, INN, BAN

>  <tradename>  (852) 
ZOLOFT

>  <SMILES>  (852) 
CN[C@H]1CC[C@@H](c2cc(Cl)c(Cl)cc2)c2c1cccc2

>  <standardized_failed>  (852) 
False

$$$$

     RDKit          2D

 34 36  0  0  0  0  0  0  0  0999 V2000
    6.8917   -2.9917    0.0000 C   0  0  0  0  0  0  0  0  0  0  0  0
    8.3250   -2.9917    0.0000 C   0  0  0  0  0  0  0  0  0  0  0  0
    5.4667   -2.9917    0.0000 C   0  0  0  0  0  0  0  0  0  0  0  0
    6.1792   -2.5792    0.0000 C   0  0  0  0  0  0  0  0  0  0  0  0
    7.6042   -2.5792    0.0000 C   0  0  0  0  0  0  0  0  0  0  0  0
    6.8917   -3.8167    0.0000 C   0  0  0  0  0  0  0  0  0  0  0  0
    8.3250   -3.8167    0.0000 C   0  0  0  0  0  0  0  0  0  0  0  0
    4.7542   -2.5792    0.0000 C   0  0  0  0  0  0  0  0  0  0  0  0
    4.0375   -2.9917    0.0000 C   0  0  0  0  0  0  0  0  0  0  0  0
    4.0375   -3.8167    0.0000 C   0  0  0  0  0  0  0  0  0  0  0  0
    7.6042   -4.2292    0.0000 C   0  0  0  0  0  0  0  0  0  0  0  0
    5.4667   -3.8167    0.0000 C   0  0  0  0  0  0  0  0  0  0  0  0
    6.1792   -4.2292    0.0000 C   0  0  0  0  0  0  0  0  0  0  0  0
    3.3250   -4.2292    0.0000 C   0  0  0  0  0  0  0  0  0  0  0  0
    4.7542   -4.2292    0.0000 C   0  0  0  0  0  0  0  0  0  0  0  0
    9.0417   -2.5792    0.0000 C   0  0  0  0  0  0  0  0  0  0  0  0
    2.6042   -3.8167    0.0000 C   0  0  0  0  0  0  0  0  0  0  0  0
    3.3250   -2.5792    0.0000 C   0  0  0  0  0  0  0  0  0  0  0  0
    7.6042   -1.7542    0.0000 O   0  0  0  0  0  0  0  0  0  0  0  0
    4.7542   -1.7542    0.0000 O   0  0  0  0  0  0  0  0  0  0  0  0
    7.6042   -5.0542    0.0000 N   0  0  0  0  0  0  0  0  0  0  0  0
    3.3250   -5.0542    0.0000 N   0  0  0  0  0  0  0  0  0  0  0  0
    6.9417   -2.1417    0.0000 O   0  0  0  0  0  0  0  0  0  0  0  0
    9.0500   -1.7542    0.0000 O   0  0  0  0  0  0  0  0  0  0  0  0
    6.1792   -1.7542    0.0000 O   0  0  0  0  0  0  0  0  0  0  0  0
    9.0417   -4.2417    0.0000 O   0  0  0  0  0  0  0  0  0  0  0  0
    2.6042   -2.9917    0.0000 C   0  0  0  0  0  0  0  0  0  0  0  0
    9.7542   -3.0000    0.0000 N   0  0  0  0  0  0  0  0  0  0  0  0
    3.3250   -1.7542    0.0000 O   0  0  0  0  0  0  0  0  0  0  0  0
    5.3000   -5.7792    0.0000 Cl  0  0  0  0  0  0  0  0  0  0  0  0
    8.3250   -5.4667    0.0000 C   0  0  0  0  0  0  0  0  0  0  0  0
    6.8917   -5.4667    0.0000 C   0  0  0  0  0  0  0  0  0  0  0  0
    2.6125   -5.4667    0.0000 C   0  0  0  0  0  0  0  0  0  0  0  0
    4.0417   -5.4667    0.0000 C   0  0  0  0  0  0  0  0  0  0  0  0
  2  5  1  0
  3  4  2  0
  4  1  1  0
  5  1  1  0
  6  1  1  0
  7 11  1  0
  8  3  1  0
  9  8  1  0
 10 15  1  0
 11  6  1  0
 12 13  1  6
  6 13  1  6
 14 10  2  0
 15 12  1  0
 16  2  1  0
 17 14  1  0
 18  9  2  0
 19  5  2  0
 20  8  2  0
 11 21  1  1
 22 14  1  0
  1 23  1  1
 24 16  2  0
 25  4  1  0
 26  7  1  0
 27 18  1  0
 28 16  1  0
 29 18  1  0
 31 21  1  0
 32 21  1  0
 33 22  1  0
 34 22  1  0
  3 12  1  0
  7  2  2  0
  9 10  1  0
 17 27  2  0
M  END
>  <ID>  (853) 


>  <MOLENAME>  (853) 
MINOCYCLINE HYDROCHLORIDE

>  <therap>  (853) 
antibacterial

>  <ref>  (853) 
Transl. Stroke Res. (2011), 2(2), 202-208; Am. J. Med. Sci. (1968), 255, 252-8; J. Med. Chem. (1967), 10(1), 44-6

>  <cas#>  (853) 
13614-98-7, 10118-90-8 [minocycline]

>  <source>  (853) 
semisynthetic

>  <status>  (853) 
USAN, INN, BAN

>  <tradename>  (853) 
SOLODYN

>  <SMILES>  (853) 
CN(C)c1c2C[C@H]3C[C@H]4[C@H](N(C)C)C(O)=C(C(N)=O)C(=O)[C@@]4(O)C(O)=C3C(=O)c2c(O)cc1

>  <standardized_failed>  (853) 
False

$$$$

     RDKit          2D

 58 62  0  0  0  0  0  0  0  0999 V2000
    7.9500   -4.7750    0.0000 C   0  0  0  0  0  0  0  0  0  0  0  0
    8.4542   -3.8417    0.0000 C   0  0  0  0  0  0  0  0  0  0  0  0
    9.7375   -4.6792    0.0000 C   0  0  0  0  0  0  0  0  0  0  0  0
    8.9792   -5.1542    0.0000 O   0  0  0  0  0  0  0  0  0  0  0  0
    9.7292   -3.6542    0.0000 N   0  0  0  0  0  0  0  0  0  0  0  0
    4.0167   -2.6250    0.0000 C   0  0  0  0  0  0  0  0  0  0  0  0
    8.0167   -3.3625    0.0000 C   0  0  0  0  0  0  0  0  0  0  0  0
    6.0000   -5.5625    0.0000 C   0  0  0  0  0  0  0  0  0  0  0  0
    5.4500   -4.3125    0.0000 C   0  0  0  0  0  0  0  0  0  0  0  0
    5.4500   -5.1250    0.0000 C   0  0  0  0  0  0  0  0  0  0  0  0
    3.4292   -3.2125    0.0000 C   0  0  0  0  0  0  0  0  0  0  0  0
    6.1250   -2.6250    0.0000 C   0  0  0  0  0  0  0  0  0  0  0  0
    6.1250   -3.3500    0.0000 C   0  0  0  0  0  0  0  0  0  0  0  0
    5.1792   -0.8042    0.0000 N   0  0  0  0  0  0  0  0  0  0  0  0
    8.1917   -2.7792    0.0000 C   0  0  0  0  0  0  0  0  0  0  0  0
    6.9375   -5.7750    0.0000 O   0  0  0  0  0  0  0  0  0  0  0  0
    5.0917    0.0083    0.0000 C   0  0  0  0  0  0  0  0  0  0  0  0
    5.1042   -2.6250    0.0000 O   0  0  0  0  0  0  0  0  0  0  0  0
    2.6292   -2.9875    0.0000 C   0  0  0  0  0  0  0  0  0  0  0  0
    6.5625   -2.0000    0.0000 C   0  0  0  0  0  0  0  0  0  0  0  0
    7.7375   -5.5750    0.0000 C   0  0  0  0  0  0  0  0  0  0  0  0
    3.8042   -1.8250    0.0000 O   0  0  0  0  0  0  0  0  0  0  0  0
    5.8542    0.3458    0.0000 C   0  0  0  0  0  0  0  0  0  0  0  0
    6.4042   -0.2667    0.0000 N   0  0  0  0  0  0  0  0  0  0  0  0
    5.9917   -0.9792    0.0000 C   0  0  0  0  0  0  0  0  0  0  0  0
    8.1917   -2.2792    0.0000 C   0  0  0  0  0  0  0  0  0  0  0  0
    7.4750   -2.0292    0.0000 C   0  0  0  0  0  0  0  0  0  0  0  0
    2.4167   -2.1875    0.0000 C   0  0  0  0  0  0  0  0  0  0  0  0
    4.3792    0.4208    0.0000 C   0  0  0  0  0  0  0  0  0  0  0  0
   10.5042   -4.8667    0.0000 O   0  0  0  0  0  0  0  0  0  0  0  0
    2.0542   -3.5750    0.0000 N   0  0  0  0  0  0  0  0  0  0  0  0
    5.6875   -6.2500    0.0000 O   0  0  0  0  0  0  0  0  0  0  0  0
    4.6042   -4.0917    0.0000 O   0  0  0  0  0  0  0  0  0  0  0  0
    3.0042   -1.6125    0.0000 C   0  0  0  0  0  0  0  0  0  0  0  0
    9.2167   -2.9042    0.0000 O   0  0  0  0  0  0  0  0  0  0  0  0
    3.6667    1.6583    0.0000 N   0  0  0  0  0  0  0  0  0  0  0  0
    3.6667   -3.7875    0.0000 O   0  0  0  0  0  0  0  0  0  0  0  0
    7.0500   -5.1542    0.0000 C   0  0  0  0  0  0  0  0  0  0  0  0
    5.5667   -2.0000    0.0000 O   0  0  0  0  0  0  0  0  0  0  0  0
    9.7292   -1.9667    0.0000 C   0  0  0  0  0  0  0  0  0  0  0  0
    7.0792   -2.8417    0.0000 C   0  0  0  0  0  0  0  0  0  0  0  0
    4.3167   -5.6875    0.0000 C   0  0  0  0  0  0  0  0  0  0  0  0
    6.9500   -3.3500    0.0000 C   0  0  0  0  0  0  0  0  0  0  0  0
    4.3792    1.2458    0.0000 C   0  0  0  0  0  0  0  0  0  0  0  0
    6.3167   -1.2250    0.0000 C   0  0  0  0  0  0  0  0  0  0  0  0
    7.4167   -0.2792    0.0000 C   0  0  0  0  0  0  0  0  0  0  0  0
    8.3125   -6.1625    0.0000 C   0  0  0  0  0  0  0  0  0  0  0  0
    8.9125   -1.8750    0.0000 C   0  0  0  0  0  0  0  0  0  0  0  0
    3.6667    0.0083    0.0000 C   0  0  0  0  0  0  0  0  0  0  0  0
    2.9542    1.2458    0.0000 C   0  0  0  0  0  0  0  0  0  0  0  0
    1.2542   -3.3625    0.0000 C   0  0  0  0  0  0  0  0  0  0  0  0
    2.2667   -4.3750    0.0000 C   0  0  0  0  0  0  0  0  0  0  0  0
    2.7917   -0.8125    0.0000 C   0  0  0  0  0  0  0  0  0  0  0  0
    4.6292   -1.7167    0.0000 C   0  0  0  0  0  0  0  0  0  0  0  0
    8.8792   -0.9375    0.0000 C   0  0  0  0  0  0  0  0  0  0  0  0
    7.7542   -1.0000    0.0000 C   0  0  0  0  0  0  0  0  0  0  0  0
    2.9542    0.4208    0.0000 C   0  0  0  0  0  0  0  0  0  0  0  0
    8.0875   -6.9625    0.0000 C   0  0  0  0  0  0  0  0  0  0  0  0
  2  1  1  0
  3  4  1  0
  1  4  1  0
  2  5  1  6
  6 18  1  0
  7  2  1  0
  8 16  1  0
  9 10  1  0
 10  8  1  0
 11  6  1  0
 12 13  1  0
 13  9  1  0
 14 25  2  0
 15  7  1  0
 16 21  1  0
 17 23  2  0
 12 18  1  1
 19 11  1  0
 27 20  1  0
 21  1  1  0
 22  6  1  0
 23 24  1  0
 24 46  1  0
 25 24  1  0
 26 15  1  0
 27 26  1  0
 28 34  1  0
 29 17  1  0
 30  3  2  0
 19 31  1  1
 32  8  2  0
 33  9  2  0
 34 22  1  0
 35 15  2  0
 36 44  2  0
 11 37  1  6
  1 38  1  6
 20 39  1  0
 40  5  1  0
  7 41  1  6
 10 42  1  6
 13 43  1  1
 44 29  1  0
 20 45  1  1
 46 56  1  0
 47 21  1  0
 26 48  1  1
 49 29  2  0
 50 57  2  0
 51 31  1  0
 52 31  1  0
 34 53  1  1
 54 39  1  0
 55 40  1  0
 56 55  1  0
 57 49  1  0
 58 47  1  0
  5  3  1  0
 20 12  1  0
 17 14  1  0
 19 28  1  0
 36 50  1  0
M  END
>  <ID>  (854) 


>  <MOLENAME>  (854) 
TELITHROMYCIN

>  <therap>  (854) 
antibacterial

>  <ref>  (854) 
J Antimicrob Chemother 41:149 (1998); 51:497 (2003)

>  <cas#>  (854) 
191114-48-4

>  <source>  (854) 
semisynthetic; HMR-3647

>  <status>  (854) 
USAN, INN, BAN

>  <tradename>  (854) 
KETEK

>  <SMILES>  (854) 
CCC1OC(=O)[C@H](C)C(=O)[C@H](C)[C@@H](OC2O[C@H](C)C[C@H](N(C)C)[C@H]2O)[C@](C)(OC)C[C@@H](C)C(=O)[C@@H](C)[C@@H]2N(CCCCn3cnc(-c4cccnc4)c3)C(=O)O[C@@]12C

>  <standardized_failed>  (854) 
False

$$$$

     RDKit          2D

 22 24  0  0  0  0  0  0  0  0999 V2000
    2.0542   -0.8375    0.0000 C   0  0  0  0  0  0  0  0  0  0  0  0
    2.0542   -0.0167    0.0000 C   0  0  0  0  0  0  0  0  0  0  0  0
    2.8375   -1.0917    0.0000 N   0  0  0  0  0  0  0  0  0  0  0  0
    2.8375    0.2458    0.0000 O   0  0  0  0  0  0  0  0  0  0  0  0
    3.3167   -0.4250    0.0000 C   0  0  0  0  0  0  0  0  0  0  0  0
    1.3375   -1.2542    0.0000 C   0  0  0  0  0  0  0  0  0  0  0  0
    5.3792   -1.1375    0.0000 C   0  0  0  0  0  0  0  0  0  0  0  0
    1.3417    0.3958    0.0000 C   0  0  0  0  0  0  0  0  0  0  0  0
    5.7917   -0.4167    0.0000 O   0  0  0  0  0  0  0  0  0  0  0  0
    4.1417   -0.4250    0.0000 C   0  0  0  0  0  0  0  0  0  0  0  0
    4.5542   -1.1375    0.0000 C   0  0  0  0  0  0  0  0  0  0  0  0
    5.7917   -1.8500    0.0000 O   0  0  0  0  0  0  0  0  0  0  0  0
    0.6292   -0.8375    0.0000 C   0  0  0  0  0  0  0  0  0  0  0  0
    1.3375   -2.0750    0.0000 C   0  0  0  0  0  0  0  0  0  0  0  0
    0.6250   -0.0167    0.0000 C   0  0  0  0  0  0  0  0  0  0  0  0
    1.3417    1.2250    0.0000 C   0  0  0  0  0  0  0  0  0  0  0  0
    0.6250   -2.4792    0.0000 C   0  0  0  0  0  0  0  0  0  0  0  0
   -0.0875    0.3958    0.0000 C   0  0  0  0  0  0  0  0  0  0  0  0
    0.6250    1.6375    0.0000 C   0  0  0  0  0  0  0  0  0  0  0  0
   -0.0875   -1.2417    0.0000 C   0  0  0  0  0  0  0  0  0  0  0  0
   -0.0875    1.2250    0.0000 C   0  0  0  0  0  0  0  0  0  0  0  0
   -0.0958   -2.0667    0.0000 C   0  0  0  0  0  0  0  0  0  0  0  0
  2  1  2  0
  3  1  1  0
  4  2  1  0
  5  3  2  0
  6  1  1  0
  7 11  1  0
  8  2  1  0
  9  7  2  0
 10  5  1  0
 11 10  1  0
 12  7  1  0
 13  6  2  0
 14  6  1  0
 15  8  2  0
 16  8  1  0
 17 14  2  0
 18 15  1  0
 19 16  2  0
 20 13  1  0
 21 19  1  0
 22 17  1  0
  4  5  1  0
 22 20  2  0
 18 21  2  0
M  END
>  <ID>  (855) 


>  <MOLENAME>  (855) 
OXAPROZIN

>  <therap>  (855) 
antiinflammatory

>  <ref>  (855) 
Expert Opin. Pharmacother. (2005), 6(5), 777-785; Curr. Ther. Res. (1983), 34(5), 777-94; Nature (1968), 219(5150), 164

>  <cas#>  (855) 
21256-18-8

>  <source>  (855) 
synthetic; WY-21743

>  <status>  (855) 
USP, INN, BAN, JAN

>  <tradename>  (855) 
DAYPRO

>  <SMILES>  (855) 
O=C(O)CCc1nc(-c2ccccc2)c(-c2ccccc2)o1

>  <standardized_failed>  (855) 
False

$$$$

     RDKit          2D

 37 37  0  0  0  0  0  0  0  0999 V2000
    9.4667   -5.0250    0.0000 C   0  0  0  0  0  0  0  0  0  0  0  0
    8.8542   -5.3792    0.0000 C   0  0  0  0  0  0  0  0  0  0  0  0
   10.0792   -5.3750    0.0000 C   0  0  0  0  0  0  0  0  0  0  0  0
    4.8542   -2.1792    0.0000 C   0  0  0  0  0  0  0  0  0  0  0  0
    9.4667   -4.3167    0.0000 C   0  0  0  0  0  0  0  0  0  0  0  0
    5.4667   -2.7292    0.0000 C   0  0  0  0  0  0  0  0  0  0  0  0
   10.6917   -5.0250    0.0000 C   0  0  0  0  0  0  0  0  0  0  0  0
    8.2417   -5.0292    0.0000 C   0  0  0  0  0  0  0  0  0  0  0  0
    5.4417   -1.5917    0.0000 C   0  0  0  0  0  0  0  0  0  0  0  0
    8.8500   -3.9667    0.0000 O   0  0  0  0  0  0  0  0  0  0  0  0
    6.2542   -2.4750    0.0000 O   0  0  0  0  0  0  0  0  0  0  0  0
    8.2417   -4.3167    0.0000 O   0  0  0  0  0  0  0  0  0  0  0  0
   10.6875   -4.3167    0.0000 O   0  0  0  0  0  0  0  0  0  0  0  0
    9.4667   -5.7292    0.0000 O   0  0  0  0  0  0  0  0  0  0  0  0
   10.0750   -3.9625    0.0000 O   0  0  0  0  0  0  0  0  0  0  0  0
    5.3000   -3.5292    0.0000 O   0  0  0  0  0  0  0  0  0  0  0  0
    6.6667   -7.5917    0.0000 N   0  0  0  0  0  0  0  0  0  0  0  0
   11.3042   -5.3750    0.0000 O   0  0  0  0  0  0  0  0  0  0  0  0
    7.6292   -5.3792    0.0000 O   0  0  0  0  0  0  0  0  0  0  0  0
    4.1542   -2.5917    0.0000 C   0  0  0  0  0  0  0  0  0  0  0  0
    4.6792   -1.3667    0.0000 C   0  0  0  0  0  0  0  0  0  0  0  0
    6.3667   -5.4375    0.0000 O   0  0  0  0  0  0  0  0  0  0  0  0
    6.2375   -1.8042    0.0000 C   0  0  0  0  0  0  0  0  0  0  0  0
    5.2250   -0.7917    0.0000 C   0  0  0  0  0  0  0  0  0  0  0  0
    6.8250   -6.7792    0.0000 C   0  0  0  0  0  0  0  0  0  0  0  0
    7.2917   -8.1292    0.0000 C   0  0  0  0  0  0  0  0  0  0  0  0
    5.8875   -7.8625    0.0000 C   0  0  0  0  0  0  0  0  0  0  0  0
    5.9167   -4.0792    0.0000 C   0  0  0  0  0  0  0  0  0  0  0  0
    6.2042   -6.2417    0.0000 C   0  0  0  0  0  0  0  0  0  0  0  0
    5.7500   -4.8917    0.0000 C   0  0  0  0  0  0  0  0  0  0  0  0
    3.8625   -1.2792    0.0000 C   0  0  0  0  0  0  0  0  0  0  0  0
    3.5292   -2.0375    0.0000 C   0  0  0  0  0  0  0  0  0  0  0  0
    7.1375   -8.9417    0.0000 C   0  0  0  0  0  0  0  0  0  0  0  0
    5.2625   -7.3167    0.0000 C   0  0  0  0  0  0  0  0  0  0  0  0
    6.8167   -1.2167    0.0000 C   0  0  0  0  0  0  0  0  0  0  0  0
    5.8042   -0.2125    0.0000 C   0  0  0  0  0  0  0  0  0  0  0  0
    6.6042   -0.4292    0.0000 C   0  0  0  0  0  0  0  0  0  0  0  0
  2  1  1  0
  3  1  1  0
  5  1  1  0
  6  4  1  0
  7  3  1  0
  8  2  1  0
  9  4  1  0
 10  5  2  0
 11  6  2  0
 12  8  2  0
 13  7  2  0
 14  1  1  0
 15  5  1  0
 16  6  1  0
 17 25  1  0
 18  7  1  0
 19  8  1  0
 20  4  1  0
 21  4  1  0
 22 30  1  0
 23  9  2  0
 24  9  1  0
 25 29  1  0
 26 17  1  0
 27 17  1  0
 28 16  1  0
 29 22  1  0
 30 28  1  0
 31 21  1  0
 32 20  1  0
 33 26  1  0
 34 27  1  0
 35 23  1  0
 36 24  2  0
 37 36  1  0
 31 32  1  0
 35 37  2  0
M  END
>  <ID>  (856) 


>  <MOLENAME>  (856) 
CARBETAPENTANE CITRATE

>  <therap>  (856) 
antitussive

>  <ref>  (856) 
Arzneim Forsch 17:495 (1967); 22:389 (1972)

>  <cas#>  (856) 
23142-01-0, 77-23-6 [carbetapentane]

>  <source>  (856) 
synthetic

>  <status>  (856) 
NF-XIII, INN, BAN

>  <tradename>  (856) 
TOCLASE

>  <SMILES>  (856) 
CCN(CC)CCOCCOC(=O)C1(c2ccccc2)CCCC1

>  <standardized_failed>  (856) 
False

$$$$

     RDKit          2D

 21 22  0  0  0  0  0  0  0  0999 V2000
    7.7917   -0.7458    0.0000 C   0  0  0  0  0  0  0  0  0  0  0  0
    7.1792   -1.3000    0.0000 S   0  0  0  0  0  0  0  0  0  0  0  0
    6.4708   -0.8917    0.0000 C   0  0  0  0  0  0  0  0  0  0  0  0
    8.5958   -0.9167    0.0000 N   0  0  0  0  0  0  0  0  0  0  0  0
    5.0417   -0.8917    0.0000 C   0  0  0  0  0  0  0  0  0  0  0  0
    5.7542   -1.3042    0.0000 N   0  0  0  0  0  0  0  0  0  0  0  0
    6.6375   -0.0875    0.0000 N   0  0  0  0  0  0  0  0  0  0  0  0
    4.3333   -1.3083    0.0000 C   0  0  0  0  0  0  0  0  0  0  0  0
    7.4542    0.0042    0.0000 C   0  0  0  0  0  0  0  0  0  0  0  0
    3.6167   -0.8958    0.0000 C   0  0  0  0  0  0  0  0  0  0  0  0
    3.6125   -0.0708    0.0000 O   0  0  0  0  0  0  0  0  0  0  0  0
    8.8583   -1.6958    0.0000 O   0  0  0  0  0  0  0  0  0  0  0  0
    2.9000    0.3375    0.0000 C   0  0  0  0  0  0  0  0  0  0  0  0
    9.1500   -0.2958    0.0000 O   0  0  0  0  0  0  0  0  0  0  0  0
    5.0417   -0.0667    0.0000 O   0  0  0  0  0  0  0  0  0  0  0  0
    2.8958    1.1625    0.0000 O   0  0  0  0  0  0  0  0  0  0  0  0
    4.3333   -2.1375    0.0000 C   0  0  0  0  0  0  0  0  0  0  0  0
    2.9042   -1.3125    0.0000 C   0  0  0  0  0  0  0  0  0  0  0  0
    2.1833   -0.0750    0.0000 C   0  0  0  0  0  0  0  0  0  0  0  0
    3.6167   -2.5500    0.0000 C   0  0  0  0  0  0  0  0  0  0  0  0
    2.9042   -2.1375    0.0000 C   0  0  0  0  0  0  0  0  0  0  0  0
  2  1  1  0
  3  2  1  0
  4  1  1  0
  5  6  1  0
  6  3  1  0
  7  9  1  0
  8  5  1  0
  9  1  2  0
 10  8  2  0
 11 10  1  0
 12  4  1  0
 13 11  1  0
 14  4  2  0
 15  5  2  0
 16 13  2  0
 17  8  1  0
 18 10  1  0
 19 13  1  0
 20 17  2  0
 21 20  1  0
  3  7  2  0
 21 18  2  0
M  CHG  2   4   1  12  -1
M  END
>  <ID>  (857) 


>  <MOLENAME>  (857) 
NITAZOXANIDE

>  <therap>  (857) 
antiparasitic

>  <ref>  (857) 
Expert Opin. Pharmacother. (2006), 7(7), 953-964; Clin. Infect. Dis. (2005), 40(8), 1173-1180; Eur. J. Med. Chem. (1978), 13(6), 539-43

>  <cas#>  (857) 
55981-09-4

>  <source>  (857) 
synthetic; PH-5776

>  <status>  (857) 
USAN, INN, BAN

>  <tradename>  (857) 
ALINIA

>  <SMILES>  (857) 
CC(=O)Oc1c(C(=O)Nc2ncc([N+](=O)[O-])s2)cccc1

>  <standardized_failed>  (857) 
False

$$$$

     RDKit          2D

 29 30  0  0  0  0  0  0  0  0999 V2000
    3.0167   -1.3625    0.0000 C   0  0  0  0  0  0  0  0  0  0  0  0
    1.5750   -1.3625    0.0000 C   0  0  0  0  0  0  0  0  0  0  0  0
    2.2917   -1.7750    0.0000 C   0  0  0  0  0  0  0  0  0  0  0  0
    1.5792   -0.5292    0.0000 C   0  0  0  0  0  0  0  0  0  0  0  0
    3.0167   -0.5292    0.0000 C   0  0  0  0  0  0  0  0  0  0  0  0
    2.2917   -0.1042    0.0000 N   0  0  0  0  0  0  0  0  0  0  0  0
    5.2042    0.1083    0.0000 S   0  0  0  0  0  0  0  0  0  0  0  0
    0.8625   -0.1167    0.0000 C   0  0  0  0  0  0  0  0  0  0  0  0
    0.1500   -0.5292    0.0000 C   0  0  0  0  0  0  0  0  0  0  0  0
    0.8625   -1.7667    0.0000 C   0  0  0  0  0  0  0  0  0  0  0  0
   -0.5708   -0.1125    0.0000 N   0  0  0  0  0  0  0  0  0  0  0  0
    3.7292   -1.7792    0.0000 C   0  0  0  0  0  0  0  0  0  0  0  0
    0.1500   -1.3542    0.0000 C   0  0  0  0  0  0  0  0  0  0  0  0
   -1.9958    0.7125    0.0000 N   0  0  0  0  0  0  0  0  0  0  0  0
    5.2000    0.7833    0.0000 O   0  0  0  0  0  0  0  0  0  0  0  0
    5.8750    0.1083    0.0000 O   0  0  0  0  0  0  0  0  0  0  0  0
    2.2917   -2.6000    0.0000 O   0  0  0  0  0  0  0  0  0  0  0  0
   -1.2833   -0.5292    0.0000 C   0  0  0  0  0  0  0  0  0  0  0  0
   -0.5708    0.7125    0.0000 C   0  0  0  0  0  0  0  0  0  0  0  0
    3.7292   -2.6042    0.0000 O   0  0  0  0  0  0  0  0  0  0  0  0
    4.5292    0.1083    0.0000 O   0  0  0  0  0  0  0  0  0  0  0  0
   -1.2750    1.1250    0.0000 C   0  0  0  0  0  0  0  0  0  0  0  0
   -1.9958   -0.1125    0.0000 C   0  0  0  0  0  0  0  0  0  0  0  0
   -0.5708   -1.7667    0.0000 F   0  0  0  0  0  0  0  0  0  0  0  0
    4.4417   -1.3667    0.0000 O   0  0  0  0  0  0  0  0  0  0  0  0
    5.2000   -0.5625    0.0000 C   0  0  0  0  0  0  0  0  0  0  0  0
    2.2917    0.7208    0.0000 C   0  0  0  0  0  0  0  0  0  0  0  0
   -2.7083    1.1333    0.0000 C   0  0  0  0  0  0  0  0  0  0  0  0
    3.0125    1.1333    0.0000 C   0  0  0  0  0  0  0  0  0  0  0  0
  2  3  1  0
  3  1  1  0
  4  2  2  0
  5  1  2  0
  6  5  1  0
  8  4  1  0
  9  8  2  0
 10  2  1  0
 11  9  1  0
 12  1  1  0
 13 10  2  0
 14 23  1  0
 15  7  2  0
 16  7  2  0
 17  3  2  0
 18 11  1  0
 19 11  1  0
 20 12  2  0
 21  7  1  0
 22 19  1  0
 23 18  1  0
 24 13  1  0
 25 12  1  0
 26  7  1  0
 27  6  1  0
 28 14  1  0
 29 27  1  0
  4  6  1  0
 13  9  1  0
 22 14  1  0
M  END
>  <ID>  (858) 


>  <MOLENAME>  (858) 
PEFLOXACINE MESYLATE

>  <therap>  (858) 
antibacterial, antiproliferative

>  <ref>  (858) 
J Med Chem 31:221 (1988); J Pharmacol Exp Ther 248:415 (1989)

>  <cas#>  (858) 
149676-40-4

>  <source>  (858) 
synthetic; 41982-BP

>  <status>  (858) 
USAN, INN, BAN

>  <tradename>  (858) 
nan

>  <SMILES>  (858) 
CCn1cc(C(=O)O)c(=O)c2c1cc(N1CCN(C)CC1)c(F)c2

>  <standardized_failed>  (858) 
False

$$$$

     RDKit          2D

 20 21  0  0  0  0  0  0  0  0999 V2000
    7.1333   -4.7250    0.0000 S   0  0  0  0  0  0  0  0  0  0  0  0
    7.8500   -5.1417    0.0000 N   0  0  0  0  0  0  0  0  0  0  0  0
    6.4208   -5.1417    0.0000 C   0  0  0  0  0  0  0  0  0  0  0  0
    4.2792   -4.7333    0.0000 S   0  0  0  0  0  0  0  0  0  0  0  0
    4.9917   -5.1417    0.0000 C   0  0  0  0  0  0  0  0  0  0  0  0
    7.8500   -5.9708    0.0000 C   0  0  0  0  0  0  0  0  0  0  0  0
    6.4167   -5.9667    0.0000 C   0  0  0  0  0  0  0  0  0  0  0  0
    7.1333   -6.3833    0.0000 N   0  0  0  0  0  0  0  0  0  0  0  0
    5.7042   -4.7292    0.0000 C   0  0  0  0  0  0  0  0  0  0  0  0
    4.9917   -5.9708    0.0000 C   0  0  0  0  0  0  0  0  0  0  0  0
    5.7042   -6.3833    0.0000 C   0  0  0  0  0  0  0  0  0  0  0  0
    7.5167   -4.1417    0.0000 O   0  0  0  0  0  0  0  0  0  0  0  0
    6.5417   -4.1333    0.0000 O   0  0  0  0  0  0  0  0  0  0  0  0
    4.7417   -4.1750    0.0000 O   0  0  0  0  0  0  0  0  0  0  0  0
    3.6917   -4.1417    0.0000 O   0  0  0  0  0  0  0  0  0  0  0  0
    3.5625   -5.1458    0.0000 N   0  0  0  0  0  0  0  0  0  0  0  0
    8.5667   -4.7333    0.0000 C   0  0  0  0  0  0  0  0  0  0  0  0
    4.2750   -6.3833    0.0000 Cl  0  0  0  0  0  0  0  0  0  0  0  0
    8.5625   -6.3833    0.0000 C   0  0  0  0  0  0  0  0  0  0  0  0
    8.5625   -7.2083    0.0000 Cl  0  0  0  0  0  0  0  0  0  0  0  0
  2  1  1  0
  3  1  1  0
  4  5  1  0
  5  9  2  0
  6  2  1  0
  7  3  2  0
  8  7  1  0
  9  3  1  0
 10  5  1  0
 11  7  1  0
 12  1  2  0
 13  1  2  0
 14  4  2  0
 15  4  2  0
 16  4  1  0
 17  2  1  0
 18 10  1  0
 19  6  1  0
 20 19  1  0
  6  8  1  0
 11 10  2  0
M  END
>  <ID>  (859) 


>  <MOLENAME>  (859) 
METHYCLOTHIAZIDE

>  <therap>  (859) 
antihypertensive

>  <ref>  (859) 
J. Am. Chem. Soc. (1960), 82, 1132-5; Clin. Pharmacol. Ther. (1963), 4, 740-8; Curr. Ther. Res. (1963), 5, 401-6

>  <cas#>  (859) 
135-07-9

>  <source>  (859) 
synthetic; NSC-110431

>  <status>  (859) 
USP, INN, BAN, JAN

>  <tradename>  (859) 
ENDURON

>  <SMILES>  (859) 
CN1C(CCl)Nc2c(cc(S(N)(=O)=O)c(Cl)c2)S1(=O)=O

>  <standardized_failed>  (859) 
False

$$$$

     RDKit          2D

 24 27  0  0  0  0  0  0  0  0999 V2000
    4.7625  -15.7875    0.0000 N   0  0  0  0  0  0  0  0  0  0  0  0
    4.3542  -14.5125    0.0000 N   0  0  0  0  0  0  0  0  0  0  0  0
    4.0917  -15.2917    0.0000 C   0  0  0  0  0  0  0  0  0  0  0  0
    4.7667  -16.6125    0.0000 C   0  0  0  0  0  0  0  0  0  0  0  0
    5.4292  -15.3042    0.0000 C   0  0  0  0  0  0  0  0  0  0  0  0
    5.1792  -14.5167    0.0000 C   0  0  0  0  0  0  0  0  0  0  0  0
    4.0542  -17.0292    0.0000 C   0  0  0  0  0  0  0  0  0  0  0  0
    2.6292  -17.8542    0.0000 C   0  0  0  0  0  0  0  0  0  0  0  0
    3.3292  -16.6167    0.0000 C   0  0  0  0  0  0  0  0  0  0  0  0
    4.0542  -17.8542    0.0000 C   0  0  0  0  0  0  0  0  0  0  0  0
    2.6250  -17.0375    0.0000 C   0  0  0  0  0  0  0  0  0  0  0  0
    3.3417  -18.2667    0.0000 C   0  0  0  0  0  0  0  0  0  0  0  0
    5.4792  -17.0167    0.0000 C   0  0  0  0  0  0  0  0  0  0  0  0
    1.9167  -18.2750    0.0000 C   0  0  0  0  0  0  0  0  0  0  0  0
    5.4875  -17.8417    0.0000 C   0  0  0  0  0  0  0  0  0  0  0  0
    6.1917  -16.6000    0.0000 C   0  0  0  0  0  0  0  0  0  0  0  0
    1.9167  -19.1042    0.0000 C   0  0  0  0  0  0  0  0  0  0  0  0
    1.2042  -17.8625    0.0000 C   0  0  0  0  0  0  0  0  0  0  0  0
    1.2042  -19.5167    0.0000 C   0  0  0  0  0  0  0  0  0  0  0  0
    6.2042  -18.2542    0.0000 C   0  0  0  0  0  0  0  0  0  0  0  0
    6.9042  -17.0042    0.0000 C   0  0  0  0  0  0  0  0  0  0  0  0
    0.4917  -18.2750    0.0000 C   0  0  0  0  0  0  0  0  0  0  0  0
    0.4917  -19.1042    0.0000 C   0  0  0  0  0  0  0  0  0  0  0  0
    6.9167  -17.8292    0.0000 C   0  0  0  0  0  0  0  0  0  0  0  0
  2  3  2  0
  3  1  1  0
  4  1  1  0
  5  1  1  0
  6  5  2  0
  7  4  1  0
  8 12  1  0
  9  7  2  0
 10  7  1  0
 11  9  1  0
 12 10  2  0
 13  4  1  0
 14  8  1  0
 15 13  2  0
 16 13  1  0
 17 14  2  0
 18 14  1  0
 19 17  1  0
 20 15  1  0
 21 16  2  0
 22 18  2  0
 23 22  1  0
 24 21  1  0
  2  6  1  0
  8 11  2  0
 24 20  2  0
 19 23  2  0
M  END
>  <ID>  (860) 


>  <MOLENAME>  (860) 
BIFONAZOLE

>  <therap>  (860) 
antifungal, calmodulin antagonist

>  <ref>  (860) 
Eur J Pharmacol 313:265 (1996)

>  <cas#>  (860) 
60628-96-8

>  <source>  (860) 
synthetic; BAY-H-4502

>  <status>  (860) 
USAN, INN, BAN, JAN

>  <tradename>  (860) 
MYCOSPOR

>  <SMILES>  (860) 
c1ccc(-c2ccc(C(c3ccccc3)n3ccnc3)cc2)cc1

>  <standardized_failed>  (860) 
False

$$$$

     RDKit          2D

 74 76  0  0  0  0  0  0  0  0999 V2000
    8.0875   -1.2792    0.0000 C   0  0  0  0  0  0  0  0  0  0  0  0
    9.5167   -0.4625    0.0000 C   0  0  0  0  0  0  0  0  0  0  0  0
    8.8042   -0.0417    0.0000 C   0  0  0  0  0  0  0  0  0  0  0  0
    8.0917   -0.4542    0.0000 C   0  0  0  0  0  0  0  0  0  0  0  0
    0.9500   -2.6000    0.0000 C   0  0  0  0  0  0  0  0  0  0  0  0
    0.2375   -3.0042    0.0000 C   0  0  0  0  0  0  0  0  0  0  0  0
    0.9500   -1.7750    0.0000 C   0  0  0  0  0  0  0  0  0  0  0  0
   10.7542    2.0167    0.0000 C   0  0  0  0  0  0  0  0  0  0  0  0
   11.3250    2.3458    0.0000 C   0  0  0  0  0  0  0  0  0  0  0  0
    8.8000   -1.6917    0.0000 O   0  0  0  0  0  0  0  0  0  0  0  0
    6.6542   -1.2750    0.0000 C   0  0  0  0  0  0  0  0  0  0  0  0
    7.3667   -1.6875    0.0000 O   0  0  0  0  0  0  0  0  0  0  0  0
   12.3750   -0.4875    0.0000 C   0  0  0  0  0  0  0  0  0  0  0  0
    0.2375   -1.3542    0.0000 O   0  0  0  0  0  0  0  0  0  0  0  0
   -0.4708   -2.6000    0.0000 C   0  0  0  0  0  0  0  0  0  0  0  0
   10.9500   -0.4750    0.0000 C   0  0  0  0  0  0  0  0  0  0  0  0
    5.9417   -1.6792    0.0000 C   0  0  0  0  0  0  0  0  0  0  0  0
    4.5125   -2.5042    0.0000 C   0  0  0  0  0  0  0  0  0  0  0  0
   11.6625   -0.0625    0.0000 C   0  0  0  0  0  0  0  0  0  0  0  0
   10.9417   -1.3000    0.0000 O   0  0  0  0  0  0  0  0  0  0  0  0
    9.5125   -1.2917    0.0000 C   0  0  0  0  0  0  0  0  0  0  0  0
    3.7917   -2.9167    0.0000 O   0  0  0  0  0  0  0  0  0  0  0  0
   12.3667   -1.3125    0.0000 C   0  0  0  0  0  0  0  0  0  0  0  0
    5.2250   -2.9167    0.0000 C   0  0  0  0  0  0  0  0  0  0  0  0
   -0.4708   -1.7750    0.0000 C   0  0  0  0  0  0  0  0  0  0  0  0
    5.9417   -2.5042    0.0000 C   0  0  0  0  0  0  0  0  0  0  0  0
   10.1875    2.3458    0.0000 C   0  0  0  0  0  0  0  0  0  0  0  0
   11.8917    2.0167    0.0000 C   0  0  0  0  0  0  0  0  0  0  0  0
   10.2375   -0.0542    0.0000 O   0  0  0  0  0  0  0  0  0  0  0  0
    3.0875   -1.6750    0.0000 C   0  0  0  0  0  0  0  0  0  0  0  0
   11.6500   -1.7167    0.0000 C   0  0  0  0  0  0  0  0  0  0  0  0
    3.8000   -1.2667    0.0000 C   0  0  0  0  0  0  0  0  0  0  0  0
    6.6625   -0.4500    0.0000 C   0  0  0  0  0  0  0  0  0  0  0  0
    4.5167    0.7958    0.0000 C   0  0  0  0  0  0  0  0  0  0  0  0
    5.2375    1.2083    0.0000 C   0  0  0  0  0  0  0  0  0  0  0  0
    3.0792   -2.5000    0.0000 C   0  0  0  0  0  0  0  0  0  0  0  0
    3.8042   -0.4417    0.0000 C   0  0  0  0  0  0  0  0  0  0  0  0
    5.9500   -0.0292    0.0000 C   0  0  0  0  0  0  0  0  0  0  0  0
    4.5167   -0.0292    0.0000 C   0  0  0  0  0  0  0  0  0  0  0  0
    1.6667   -1.3625    0.0000 O   0  0  0  0  0  0  0  0  0  0  0  0
    8.8125    0.7833    0.0000 N   0  0  0  0  0  0  0  0  0  0  0  0
    5.9500    0.7958    0.0000 C   0  0  0  0  0  0  0  0  0  0  0  0
    2.5667   -1.3667    0.0000 C   0  0  0  0  0  0  0  0  0  0  0  0
    4.5167   -1.6792    0.0000 O   0  0  0  0  0  0  0  0  0  0  0  0
   10.1875    3.0000    0.0000 O   0  0  0  0  0  0  0  0  0  0  0  0
   11.8917    1.3500    0.0000 O   0  0  0  0  0  0  0  0  0  0  0  0
    5.2417    2.0333    0.0000 O   0  0  0  0  0  0  0  0  0  0  0  0
    7.3917   -0.4542    0.0000 O   0  0  0  0  0  0  0  0  0  0  0  0
    1.6667   -3.0125    0.0000 O   0  0  0  0  0  0  0  0  0  0  0  0
   10.7542    1.3500    0.0000 O   0  0  0  0  0  0  0  0  0  0  0  0
   11.3250    3.0000    0.0000 O   0  0  0  0  0  0  0  0  0  0  0  0
    7.5167    1.3875    0.0000 O   0  0  0  0  0  0  0  0  0  0  0  0
    0.2375   -3.8292    0.0000 O   0  0  0  0  0  0  0  0  0  0  0  0
   12.5875    0.3125    0.0000 O   0  0  0  0  0  0  0  0  0  0  0  0
   -1.1875   -3.0125    0.0000 O   0  0  0  0  0  0  0  0  0  0  0  0
   13.0792   -1.7292    0.0000 O   0  0  0  0  0  0  0  0  0  0  0  0
    9.6167    2.0167    0.0000 O   0  0  0  0  0  0  0  0  0  0  0  0
   12.4625    2.3458    0.0000 O   0  0  0  0  0  0  0  0  0  0  0  0
    6.6542   -2.9250    0.0000 O   0  0  0  0  0  0  0  0  0  0  0  0
    7.0042    0.9208    0.0000 C   0  0  0  0  0  0  0  0  0  0  0  0
   13.1667   -0.7000    0.0000 C   0  0  0  0  0  0  0  0  0  0  0  0
    5.2292   -1.2667    0.0000 C   0  0  0  0  0  0  0  0  0  0  0  0
    7.2042    0.1708    0.0000 C   0  0  0  0  0  0  0  0  0  0  0  0
   10.2250   -1.7042    0.0000 C   0  0  0  0  0  0  0  0  0  0  0  0
   -1.1875   -1.3625    0.0000 C   0  0  0  0  0  0  0  0  0  0  0  0
   11.6375   -2.5417    0.0000 C   0  0  0  0  0  0  0  0  0  0  0  0
    2.3667   -2.9125    0.0000 C   0  0  0  0  0  0  0  0  0  0  0  0
    3.0917   -0.0250    0.0000 C   0  0  0  0  0  0  0  0  0  0  0  0
    8.1000    1.1958    0.0000 C   0  0  0  0  0  0  0  0  0  0  0  0
    9.5292    1.1875    0.0000 C   0  0  0  0  0  0  0  0  0  0  0  0
    6.3917    1.4208    0.0000 C   0  0  0  0  0  0  0  0  0  0  0  0
    1.6625   -3.8375    0.0000 C   0  0  0  0  0  0  0  0  0  0  0  0
   -0.4750   -4.2417    0.0000 C   0  0  0  0  0  0  0  0  0  0  0  0
    2.3542   -3.7375    0.0000 C   0  0  0  0  0  0  0  0  0  0  0  0
  2 21  1  0
  3  4  1  0
  4  1  1  0
  5  7  1  0
  6  5  1  0
  7 40  1  1
  9  8  1  0
 10  1  1  0
 11 12  1  6
  1 12  1  1
 13 19  1  0
 14  7  1  0
 15 25  1  0
 16 29  1  1
 17 11  1  0
 18 24  1  0
 19 16  1  0
 20 16  1  0
 21 10  1  0
 22 18  1  0
 23 13  1  0
 24 26  1  0
 25 14  1  0
 26 17  1  0
 27  8  1  0
 28  9  1  0
  2 29  1  6
 30 36  1  0
 31 20  1  0
 32 30  1  0
 33 11  1  0
 34 35  1  0
 35 42  1  0
 36 22  1  0
 37 39  1  0
 38 33  1  0
 39 34  2  0
 40 43  1  0
  3 41  1  1
 42 38  1  0
 30 43  1  1
 44 18  2  0
 45 27  2  0
 46 28  2  0
 47 35  2  0
  4 48  1  6
  5 49  1  6
  8 50  1  1
  9 51  1  1
 52 60  2  0
  6 53  1  6
 13 54  1  0
 15 55  1  6
 23 56  1  1
 57 27  1  0
 58 28  1  0
 26 59  1  6
 60 63  1  0
 13 61  1  6
 17 62  1  6
 33 63  1  6
 21 64  1  1
 25 65  1  1
 31 66  1  6
 36 67  1  6
 68 37  1  0
 69 41  1  0
 70 41  1  0
 42 71  1  6
 72 49  1  0
 73 53  1  0
 74 67  1  0
  2  3  1  0
 31 23  1  0
 37 32  2  0
  6 15  1  0
M  END
>  <ID>  (861) 


>  <MOLENAME>  (861) 
TYLOSIN TARTRATE

>  <therap>  (861) 
antibacterial

>  <ref>  (861) 
Chem Ber 108:2481 (1975); Infection 5:183 (1977); Antimicrob Agents Chemother 20:214 (1981);  US Pat 1981, 4 304 856; J Antibiot 35: 921, 1675 (1982)

>  <cas#>  (861) 
1405-54-5, 1401-69-0(base)

>  <source>  (861) 
Streptomyces fradiae

>  <status>  (861) 
USP, INN, BAN

>  <tradename>  (861) 
TYLAN

>  <SMILES>  (861) 
CC[C@H]1OC(=O)C[C@@H](O)[C@H](C)[C@@H](O[C@@H]2O[C@H](C)[C@@H](O[C@H]3C[C@@](C)(O)[C@@H](O)[C@H](C)O3)[C@H](N(C)C)[C@H]2O)[C@@H](CC=O)C[C@@H](C)C(=O)/C=C/C(C)=C/[C@@H]1CO[C@@H]1O[C@H](C)[C@@H](O)[C@@H](OC)[C@H]1OC

>  <standardized_failed>  (861) 
False

$$$$

     RDKit          2D

 29 31  0  0  0  0  0  0  0  0999 V2000
    7.2417   -3.9292    0.0000 C   0  0  0  0  0  0  0  0  0  0  0  0
    6.5167   -2.6917    0.0000 N   0  0  0  0  0  0  0  0  0  0  0  0
    5.8125   -3.9375    0.0000 C   0  0  0  0  0  0  0  0  0  0  0  0
    5.8125   -3.1125    0.0000 C   0  0  0  0  0  0  0  0  0  0  0  0
    6.5292   -4.3500    0.0000 C   0  0  0  0  0  0  0  0  0  0  0  0
    7.2375   -3.1042    0.0000 C   0  0  0  0  0  0  0  0  0  0  0  0
    5.0917   -2.7000    0.0000 C   0  0  0  0  0  0  0  0  0  0  0  0
    4.3792   -3.1125    0.0000 C   0  0  0  0  0  0  0  0  0  0  0  0
    5.0917   -4.3542    0.0000 C   0  0  0  0  0  0  0  0  0  0  0  0
    7.9542   -4.3417    0.0000 C   0  0  0  0  0  0  0  0  0  0  0  0
    4.3792   -3.9417    0.0000 C   0  0  0  0  0  0  0  0  0  0  0  0
    3.6667   -2.6917    0.0000 N   0  0  0  0  0  0  0  0  0  0  0  0
    6.5167   -1.8750    0.0000 C   0  0  0  0  0  0  0  0  0  0  0  0
    6.5292   -5.1750    0.0000 O   0  0  0  0  0  0  0  0  0  0  0  0
    2.2417   -1.8667    0.0000 N   0  0  0  0  0  0  0  0  0  0  0  0
    7.9625   -5.1667    0.0000 O   0  0  0  0  0  0  0  0  0  0  0  0
    5.8042   -1.4667    0.0000 C   0  0  0  0  0  0  0  0  0  0  0  0
    7.2292   -1.4542    0.0000 C   0  0  0  0  0  0  0  0  0  0  0  0
    3.6667   -4.3542    0.0000 F   0  0  0  0  0  0  0  0  0  0  0  0
    8.6667   -3.9292    0.0000 O   0  0  0  0  0  0  0  0  0  0  0  0
    6.5167   -0.2167    0.0000 C   0  0  0  0  0  0  0  0  0  0  0  0
    7.2292   -0.6375    0.0000 C   0  0  0  0  0  0  0  0  0  0  0  0
    5.8042   -0.6417    0.0000 C   0  0  0  0  0  0  0  0  0  0  0  0
    6.5167    0.6000    0.0000 F   0  0  0  0  0  0  0  0  0  0  0  0
    9.1292   -2.3917    0.0000 Cl  0  0  0  0  0  0  0  0  0  0  0  0
    3.6667   -1.8667    0.0000 C   0  0  0  0  0  0  0  0  0  0  0  0
    2.9542   -3.1125    0.0000 C   0  0  0  0  0  0  0  0  0  0  0  0
    2.2417   -2.6917    0.0000 C   0  0  0  0  0  0  0  0  0  0  0  0
    2.9625   -1.4542    0.0000 C   0  0  0  0  0  0  0  0  0  0  0  0
  2  6  1  0
  3  5  1  0
  4  2  1  0
  5  1  1  0
  6  1  2  0
  7  4  2  0
  8  7  1  0
  9  3  2  0
 10  1  1  0
 11  9  1  0
 12  8  1  0
 13  2  1  0
 14  5  2  0
 15 29  1  0
 16 10  2  0
 17 13  2  0
 18 13  1  0
 19 11  1  0
 20 10  1  0
 21 22  1  0
 22 18  2  0
 23 17  1  0
 24 21  1  0
 26 12  1  0
 27 12  1  0
 28 27  1  0
 29 26  1  0
  3  4  1  0
 11  8  2  0
 21 23  2  0
 28 15  1  0
M  END
>  <ID>  (862) 


>  <MOLENAME>  (862) 
SARAFLOXACIN HYDROCHLORIDE

>  <therap>  (862) 
antibacterial

>  <ref>  (862) 
J Med Chem 28:1558 (1985); J Antimicrob Chemother 19:611 (1987)

>  <cas#>  (862) 
91296-87-6

>  <source>  (862) 
synthetic; Abbott-56620

>  <status>  (862) 
USAN, INN, BAN

>  <tradename>  (862) 
SARAFLOX

>  <SMILES>  (862) 
O=C(O)c1cn(-c2ccc(F)cc2)c2cc(N3CCNCC3)c(F)cc2c1=O

>  <standardized_failed>  (862) 
False

$$$$

     RDKit          2D

 29 28  0  0  0  0  0  0  0  0999 V2000
    4.7708   -3.1208    0.0000 N   0  0  0  0  0  0  0  0  0  0  0  0
    3.0958   -3.1208    0.0000 N   0  0  0  0  0  0  0  0  0  0  0  0
    3.1250   -4.3083    0.0000 N   0  0  0  0  0  0  0  0  0  0  0  0
    4.7833   -4.3125    0.0000 N   0  0  0  0  0  0  0  0  0  0  0  0
    2.5042   -1.7042    0.0000 C   0  0  0  0  0  0  0  0  0  0  0  0
    5.3500   -1.7042    0.0000 C   0  0  0  0  0  0  0  0  0  0  0  0
    2.5792   -5.8417    0.0000 C   0  0  0  0  0  0  0  0  0  0  0  0
    6.0583   -1.2917    0.0000 O   0  0  0  0  0  0  0  0  0  0  0  0
    1.7875   -1.2958    0.0000 O   0  0  0  0  0  0  0  0  0  0  0  0
    1.8750   -6.3375    0.0000 O   0  0  0  0  0  0  0  0  0  0  0  0
    2.5792   -5.0167    0.0000 C   0  0  0  0  0  0  0  0  0  0  0  0
    2.5042   -2.5292    0.0000 C   0  0  0  0  0  0  0  0  0  0  0  0
    5.3542   -2.5292    0.0000 C   0  0  0  0  0  0  0  0  0  0  0  0
    4.6333   -1.2958    0.0000 O   0  0  0  0  0  0  0  0  0  0  0  0
    3.2125   -1.2917    0.0000 O   0  0  0  0  0  0  0  0  0  0  0  0
    3.2167   -6.3042    0.0000 O   0  0  0  0  0  0  0  0  0  0  0  0
    5.3667   -4.8917    0.0000 C   0  0  0  0  0  0  0  0  0  0  0  0
    2.3083   -3.3083    0.0000 C   0  0  0  0  0  0  0  0  0  0  0  0
    2.3125   -4.1292    0.0000 C   0  0  0  0  0  0  0  0  0  0  0  0
    5.5792   -4.1250    0.0000 C   0  0  0  0  0  0  0  0  0  0  0  0
    5.5750   -3.3042    0.0000 C   0  0  0  0  0  0  0  0  0  0  0  0
    4.6042   -5.1167    0.0000 C   0  0  0  0  0  0  0  0  0  0  0  0
    4.5792   -2.3250    0.0000 C   0  0  0  0  0  0  0  0  0  0  0  0
    3.2875   -2.3250    0.0000 C   0  0  0  0  0  0  0  0  0  0  0  0
    3.3125   -5.1167    0.0000 C   0  0  0  0  0  0  0  0  0  0  0  0
    3.7792   -3.7125    0.0000 Gd  0  0  0  0  0 15  0  0  0  0  0  0
    4.6458   -6.1292    0.0000 O   0  0  0  0  0  0  0  0  0  0  0  0
    5.3625   -5.7167    0.0000 C   0  0  0  0  0  0  0  0  0  0  0  0
    6.0708   -6.1333    0.0000 C   0  0  0  0  0  0  0  0  0  0  0  0
  2 24  1  0
  3 19  1  0
  4 20  1  0
  5 12  1  0
  6 13  1  0
  7 11  1  0
  8  6  1  0
  9  5  1  0
 10  7  1  0
 11  3  1  0
 12  2  1  0
 13  1  1  0
 14  6  2  0
 15  5  2  0
 16  7  2  0
 17  4  1  0
 18  2  1  0
 19 18  1  0
 20 21  1  0
 21  1  1  0
 22  4  1  0
 23  1  1  0
 24 23  1  0
 25 22  1  0
 27 28  1  0
 28 17  1  0
 29 28  1  0
 25  3  1  0
M  CHG  4   8  -1   9  -1  10  -1  26   3
M  END
>  <ID>  (863) 


>  <MOLENAME>  (863) 
GADOTERIDOL

>  <therap>  (863) 
paramagnetic agent

>  <ref>  (863) 
Pure Appl. Chem. (1993), 65(3), 515-20; Invest. Radiol. (1992), 27(Suppl. 1), 2-6; Inorg. Chem. (1991), 30(6), 1265-9

>  <cas#>  (863) 
120066-54-8

>  <source>  (863) 
synthetic; SQ-32692

>  <status>  (863) 
USP, INN, BAN, JAN

>  <tradename>  (863) 
PROHANCE

>  <SMILES>  (863) 
CC(O)CN1CCN(CC(=O)[O-])CCN(CC(=O)[O-])CCN(CC(=O)[O-])CC1.[Gd+3]

>  <standardized_failed>  (863) 
True

$$$$

     RDKit          2D

 28 31  0  0  0  0  0  0  0  0999 V2000
    4.2542   -4.6792    0.0000 C   0  0  0  0  0  0  0  0  0  0  0  0
    4.2625   -3.8542    0.0000 C   0  0  0  0  0  0  0  0  0  0  0  0
    6.4125   -2.6292    0.0000 C   0  0  0  0  0  0  0  0  0  0  0  0
    7.1917   -2.3875    0.0000 C   0  0  0  0  0  0  0  0  0  0  0  0
    5.6792   -3.8625    0.0000 C   0  0  0  0  0  0  0  0  0  0  0  0
    4.9667   -5.0917    0.0000 C   0  0  0  0  0  0  0  0  0  0  0  0
    5.6875   -4.6792    0.0000 C   0  0  0  0  0  0  0  0  0  0  0  0
    4.9750   -3.4417    0.0000 C   0  0  0  0  0  0  0  0  0  0  0  0
    6.4042   -3.4542    0.0000 C   0  0  0  0  0  0  0  0  0  0  0  0
    3.5500   -5.0875    0.0000 C   0  0  0  0  0  0  0  0  0  0  0  0
    5.7042   -2.2125    0.0000 C   0  0  0  0  0  0  0  0  0  0  0  0
    7.6667   -3.0542    0.0000 C   0  0  0  0  0  0  0  0  0  0  0  0
    7.9917   -2.1667    0.0000 O   0  0  0  0  0  0  0  0  0  0  0  0
    4.9792   -2.6167    0.0000 C   0  0  0  0  0  0  0  0  0  0  0  0
    7.1792   -3.7167    0.0000 C   0  0  0  0  0  0  0  0  0  0  0  0
    3.5500   -3.4375    0.0000 C   0  0  0  0  0  0  0  0  0  0  0  0
    7.1917   -1.5625    0.0000 C   0  0  0  0  0  0  0  0  0  0  0  0
    8.5792   -2.7417    0.0000 C   0  0  0  0  0  0  0  0  0  0  0  0
    2.8417   -4.6792    0.0000 C   0  0  0  0  0  0  0  0  0  0  0  0
    8.3667   -3.5417    0.0000 O   0  0  0  0  0  0  0  0  0  0  0  0
    6.4667   -1.1542    0.0000 O   0  0  0  0  0  0  0  0  0  0  0  0
    4.9625   -5.9167    0.0000 Cl  0  0  0  0  0  0  0  0  0  0  0  0
    2.1250   -5.0917    0.0000 O   0  0  0  0  0  0  0  0  0  0  0  0
    2.8417   -3.8542    0.0000 C   0  0  0  0  0  0  0  0  0  0  0  0
    4.2542   -3.0292    0.0000 C   0  0  0  0  0  0  0  0  0  0  0  0
    6.4042   -1.8042    0.0000 C   0  0  0  0  0  0  0  0  0  0  0  0
    9.3750   -2.5250    0.0000 C   0  0  0  0  0  0  0  0  0  0  0  0
    7.9000   -1.1417    0.0000 C   0  0  0  0  0  0  0  0  0  0  0  0
  2  1  1  0
  3  9  1  0
  4  3  1  0
  5  7  1  0
  6  1  1  0
  7  6  2  0
  8  2  1  0
  9  5  1  0
 10  1  2  0
 11 14  1  0
 12 15  1  0
  4 13  1  6
 14  8  1  0
 15  9  1  0
 16  2  1  0
  4 17  1  0
 18 13  1  0
 19 10  1  0
 20 18  2  0
 21 17  2  0
 22  6  1  0
 23 19  2  0
 24 19  1  0
  2 25  1  1
  3 26  1  1
 27 18  1  0
 28 17  1  0
  5  8  1  0
 24 16  1  0
  3 11  1  0
  4 12  1  0
M  END
>  <ID>  (864) 


>  <MOLENAME>  (864) 
CHLORMADINONE ACETATE

>  <therap>  (864) 
progestin, antiandrogen

>  <ref>  (864) 
Cancer Metastasis Rev 6:615 (1987); Endocrin J 42:505 (1995)

>  <cas#>  (864) 
302-22-7

>  <source>  (864) 
semisynthetic; NSC-92338

>  <status>  (864) 
USAN, INN, BAN, JAN

>  <tradename>  (864) 
nan

>  <SMILES>  (864) 
CC(=O)O[C@]1(C(C)=O)CCC2C3C=C(Cl)C4=CC(=O)CC[C@]4(C)C3CC[C@@]21C

>  <standardized_failed>  (864) 
False

$$$$

     RDKit          2D

 30 31  0  0  0  0  0  0  0  0999 V2000
    8.5625   -3.9292    0.0000 N   0  0  0  0  0  0  0  0  0  0  0  0
    5.5500   -2.4917    0.0000 C   0  0  0  0  0  0  0  0  0  0  0  0
    6.2542   -2.0792    0.0000 C   0  0  0  0  0  0  0  0  0  0  0  0
    6.9750   -2.4875    0.0000 C   0  0  0  0  0  0  0  0  0  0  0  0
    4.8375   -3.7292    0.0000 N   0  0  0  0  0  0  0  0  0  0  0  0
    3.9417   -4.7250    0.0000 N   0  0  0  0  0  0  0  0  0  0  0  0
    1.9792   -2.0875    0.0000 C   0  0  0  0  0  0  0  0  0  0  0  0
    4.7500   -4.5500    0.0000 C   0  0  0  0  0  0  0  0  0  0  0  0
    5.5500   -3.3167    0.0000 C   0  0  0  0  0  0  0  0  0  0  0  0
    4.8375   -2.0792    0.0000 N   0  0  0  0  0  0  0  0  0  0  0  0
    7.6792   -2.0667    0.0000 C   0  0  0  0  0  0  0  0  0  0  0  0
    9.1292   -4.2542    0.0000 O   0  0  0  0  0  0  0  0  0  0  0  0
    6.2542   -1.2625    0.0000 C   0  0  0  0  0  0  0  0  0  0  0  0
    2.7000   -2.5000    0.0000 C   0  0  0  0  0  0  0  0  0  0  0  0
    1.2667   -2.5000    0.0000 C   0  0  0  0  0  0  0  0  0  0  0  0
    8.5667   -3.2750    0.0000 O   0  0  0  0  0  0  0  0  0  0  0  0
    3.5292   -4.0042    0.0000 C   0  0  0  0  0  0  0  0  0  0  0  0
    4.0792   -3.3917    0.0000 C   0  0  0  0  0  0  0  0  0  0  0  0
    7.9875   -4.2542    0.0000 O   0  0  0  0  0  0  0  0  0  0  0  0
    2.7000   -3.3292    0.0000 C   0  0  0  0  0  0  0  0  0  0  0  0
    7.6750   -1.2500    0.0000 C   0  0  0  0  0  0  0  0  0  0  0  0
    4.1250   -2.4917    0.0000 O   0  0  0  0  0  0  0  0  0  0  0  0
    1.2667   -3.3292    0.0000 C   0  0  0  0  0  0  0  0  0  0  0  0
    6.9792   -3.3125    0.0000 Cl  0  0  0  0  0  0  0  0  0  0  0  0
    1.9792   -1.2625    0.0000 Cl  0  0  0  0  0  0  0  0  0  0  0  0
    6.9542   -0.8417    0.0000 C   0  0  0  0  0  0  0  0  0  0  0  0
    1.9792   -3.7417    0.0000 C   0  0  0  0  0  0  0  0  0  0  0  0
    0.5542   -3.7417    0.0000 Cl  0  0  0  0  0  0  0  0  0  0  0  0
    8.3875   -0.8292    0.0000 Cl  0  0  0  0  0  0  0  0  0  0  0  0
    3.4125   -2.0875    0.0000 C   0  0  0  0  0  0  0  0  0  0  0  0
  3  2  1  0
  4  3  2  0
  5  9  1  0
  6  8  2  0
  7 14  2  0
  8  5  1  0
  9  2  1  0
 10  2  2  0
 11  4  1  0
 12  1  1  0
 13  3  1  0
 14 30  1  0
 15  7  1  0
 16  1  2  0
 17 18  2  0
 18  5  1  0
 19  1  1  0
 20 14  1  0
 21 26  1  0
 22 10  1  0
 23 27  1  0
 24  4  1  0
 25  7  1  0
 26 13  2  0
 27 20  2  0
 28 23  1  0
 29 21  1  0
 30 22  1  0
  6 17  1  0
 21 11  2  0
 23 15  2  0
M  CHG  2   1   1  12  -1
M  END
>  <ID>  (865) 


>  <MOLENAME>  (865) 
OXICONAZOLE NITRATE

>  <therap>  (865) 
antifungal

>  <ref>  (865) 
Arzneimittelforschung 32:17 (1992)

>  <cas#>  (865) 
64211-46-7

>  <source>  (865) 
synthetic; SGD-301-76, Ro-13-8996,ST-813

>  <status>  (865) 
USAN, INN, BAN, JAN

>  <tradename>  (865) 
OXISTAT

>  <SMILES>  (865) 
Clc1cc(Cl)c(CO/N=C(\Cn2ccnc2)c2c(Cl)cc(Cl)cc2)cc1

>  <standardized_failed>  (865) 
False

$$$$

     RDKit          2D

 24 26  0  0  0  0  0  0  0  0999 V2000
    6.8417   -0.9750    0.0000 N   0  0  0  0  0  0  0  0  0  0  0  0
    7.5542   -0.5625    0.0000 C   0  0  0  0  0  0  0  0  0  0  0  0
    5.4167   -1.7917    0.0000 N   0  0  0  0  0  0  0  0  0  0  0  0
    7.5542    0.2583    0.0000 N   0  0  0  0  0  0  0  0  0  0  0  0
    2.5667   -1.8042    0.0000 C   0  0  0  0  0  0  0  0  0  0  0  0
    1.8542   -2.2167    0.0000 C   0  0  0  0  0  0  0  0  0  0  0  0
    6.8417   -1.7917    0.0000 C   0  0  0  0  0  0  0  0  0  0  0  0
    6.1292   -0.5625    0.0000 C   0  0  0  0  0  0  0  0  0  0  0  0
    2.5667   -0.9792    0.0000 O   0  0  0  0  0  0  0  0  0  0  0  0
    1.8542   -3.0417    0.0000 C   0  0  0  0  0  0  0  0  0  0  0  0
    1.1417   -1.8042    0.0000 C   0  0  0  0  0  0  0  0  0  0  0  0
    6.1292   -2.2042    0.0000 C   0  0  0  0  0  0  0  0  0  0  0  0
    5.4167   -0.9667    0.0000 C   0  0  0  0  0  0  0  0  0  0  0  0
    0.4292   -3.0417    0.0000 C   0  0  0  0  0  0  0  0  0  0  0  0
    1.1417   -3.4542    0.0000 C   0  0  0  0  0  0  0  0  0  0  0  0
    0.4292   -2.2167    0.0000 C   0  0  0  0  0  0  0  0  0  0  0  0
   -0.2875   -3.4542    0.0000 F   0  0  0  0  0  0  0  0  0  0  0  0
    4.7042   -2.2042    0.0000 C   0  0  0  0  0  0  0  0  0  0  0  0
    3.9917   -1.8000    0.0000 C   0  0  0  0  0  0  0  0  0  0  0  0
    3.2792   -2.2125    0.0000 C   0  0  0  0  0  0  0  0  0  0  0  0
    8.2667   -0.9792    0.0000 C   0  0  0  0  0  0  0  0  0  0  0  0
    8.2667    0.6708    0.0000 C   0  0  0  0  0  0  0  0  0  0  0  0
    8.9875   -0.5667    0.0000 C   0  0  0  0  0  0  0  0  0  0  0  0
    8.9875    0.2583    0.0000 C   0  0  0  0  0  0  0  0  0  0  0  0
  2  1  1  0
  3 13  1  0
  4  2  2  0
  5 20  1  0
  6  5  1  0
  7  1  1  0
  8  1  1  0
  9  5  2  0
 10  6  2  0
 11  6  1  0
 12  7  1  0
 13  8  1  0
 14 16  1  0
 15 10  1  0
 16 11  2  0
 17 14  1  0
 18  3  1  0
 19 18  1  0
 20 19  1  0
 21  2  1  0
 22  4  1  0
 23 21  2  0
 24 23  1  0
 12  3  1  0
 24 22  2  0
 15 14  2  0
M  END
>  <ID>  (866) 


>  <MOLENAME>  (866) 
AZAPERONE

>  <therap>  (866) 
tranquilizer, neuroleptic, alpha adrenergic blocker

>  <ref>  (866) 
J Vet Pharmacol Ther 9:164 (1986); Psychopharmacol 52:107 (1997)

>  <cas#>  (866) 
1649-18-9

>  <source>  (866) 
synthetic; R-1929

>  <status>  (866) 
USP, INN, BAN

>  <tradename>  (866) 
SUICALM

>  <SMILES>  (866) 
O=C(CCCN1CCN(c2ncccc2)CC1)c1ccc(F)cc1

>  <standardized_failed>  (866) 
False

$$$$

     RDKit          2D

 32 32  0  0  0  0  0  0  0  0999 V2000
    6.8333   -6.5042    0.0000 C   0  0  0  0  0  0  0  0  0  0  0  0
    7.5458   -5.2625    0.0000 C   0  0  0  0  0  0  0  0  0  0  0  0
    8.2625   -6.5042    0.0000 C   0  0  0  0  0  0  0  0  0  0  0  0
    6.8333   -5.6750    0.0000 C   0  0  0  0  0  0  0  0  0  0  0  0
    7.5458   -6.9167    0.0000 C   0  0  0  0  0  0  0  0  0  0  0  0
    8.2625   -5.6750    0.0000 C   0  0  0  0  0  0  0  0  0  0  0  0
    6.1167   -6.9167    0.0000 N   0  0  0  0  0  0  0  0  0  0  0  0
    7.5417   -4.4375    0.0000 C   0  0  0  0  0  0  0  0  0  0  0  0
    8.9792   -6.9167    0.0000 C   0  0  0  0  0  0  0  0  0  0  0  0
    5.4042   -6.5042    0.0000 C   0  0  0  0  0  0  0  0  0  0  0  0
    6.8292   -4.0250    0.0000 N   0  0  0  0  0  0  0  0  0  0  0  0
    6.1167   -7.7417    0.0000 C   0  0  0  0  0  0  0  0  0  0  0  0
    8.2583   -4.0250    0.0000 O   0  0  0  0  0  0  0  0  0  0  0  0
    9.6917   -6.5000    0.0000 O   0  0  0  0  0  0  0  0  0  0  0  0
    5.4042   -5.6792    0.0000 O   0  0  0  0  0  0  0  0  0  0  0  0
    7.5458   -7.7417    0.0000 I   0  0  0  0  0  0  0  0  0  0  0  0
    6.1208   -5.2667    0.0000 I   0  0  0  0  0  0  0  0  0  0  0  0
    8.9750   -5.2583    0.0000 I   0  0  0  0  0  0  0  0  0  0  0  0
    8.9792   -7.7417    0.0000 N   0  0  0  0  0  0  0  0  0  0  0  0
    5.4042   -8.1542    0.0000 C   0  0  0  0  0  0  0  0  0  0  0  0
    6.1167   -4.4375    0.0000 C   0  0  0  0  0  0  0  0  0  0  0  0
    5.4042   -4.0250    0.0000 C   0  0  0  0  0  0  0  0  0  0  0  0
    5.4000   -8.9792    0.0000 O   0  0  0  0  0  0  0  0  0  0  0  0
    5.4042   -3.2000    0.0000 O   0  0  0  0  0  0  0  0  0  0  0  0
    4.6875   -6.9167    0.0000 C   0  0  0  0  0  0  0  0  0  0  0  0
    3.9792   -4.0250    0.0000 O   0  0  0  0  0  0  0  0  0  0  0  0
    3.9750   -8.1542    0.0000 O   0  0  0  0  0  0  0  0  0  0  0  0
   11.1250   -8.1500    0.0000 O   0  0  0  0  0  0  0  0  0  0  0  0
    4.6875   -7.7417    0.0000 C   0  0  0  0  0  0  0  0  0  0  0  0
    4.6917   -4.4375    0.0000 C   0  0  0  0  0  0  0  0  0  0  0  0
    9.6958   -8.1500    0.0000 C   0  0  0  0  0  0  0  0  0  0  0  0
   10.4083   -7.7375    0.0000 C   0  0  0  0  0  0  0  0  0  0  0  0
  2  4  1  0
  3  5  2  0
  4  1  2  0
  5  1  1  0
  6  3  1  0
  7  1  1  0
  8  2  1  0
  9  3  1  0
 10  7  1  0
 11  8  1  0
 12  7  1  0
 13  8  2  0
 14  9  2  0
 15 10  2  0
 16  5  1  0
 17  4  1  0
 18  6  1  0
 19  9  1  0
 20 12  1  0
 21 11  1  0
 22 21  1  0
 23 20  1  0
 24 22  1  0
 25 10  1  0
 26 30  1  0
 27 29  1  0
 28 32  1  0
 29 20  1  0
 30 22  1  0
 31 19  1  0
 32 31  1  0
  2  6  2  0
M  END
>  <ID>  (867) 


>  <MOLENAME>  (867) 
IOXILAN

>  <therap>  (867) 
radiopaque agent

>  <ref>  (867) 
Invest. Radiol. (1988), 23(Suppl. 1), S79-S83; Invest. Radiol. (1990), 25 Suppl 1S107-8; Invest. Radiol. (1990), 25(1), 46-51

>  <cas#>  (867) 
107793-72-6

>  <source>  (867) 
synthetic

>  <status>  (867) 
USP, INN

>  <tradename>  (867) 
OXILAN

>  <SMILES>  (867) 
CC(=O)N(CC(O)CO)c1c(I)c(C(=O)NCC(O)CO)c(I)c(C(=O)NCCO)c1I

>  <standardized_failed>  (867) 
False

$$$$

     RDKit          2D

 28 30  0  0  0  0  0  0  0  0999 V2000
    3.8167   -1.3917    0.0000 N   0  0  0  0  0  0  0  0  0  0  0  0
    3.8167   -2.2250    0.0000 N   0  0  0  0  0  0  0  0  0  0  0  0
    3.1000   -0.9875    0.0000 C   0  0  0  0  0  0  0  0  0  0  0  0
    3.1042   -2.6417    0.0000 C   0  0  0  0  0  0  0  0  0  0  0  0
    2.3917   -1.4042    0.0000 C   0  0  0  0  0  0  0  0  0  0  0  0
    2.3917   -2.2292    0.0000 C   0  0  0  0  0  0  0  0  0  0  0  0
    4.5292   -0.9792    0.0000 C   0  0  0  0  0  0  0  0  0  0  0  0
    6.3125   -0.6292    0.0000 N   0  0  0  0  0  0  0  0  0  0  0  0
    3.0917   -0.1542    0.0000 O   0  0  0  0  0  0  0  0  0  0  0  0
    3.1042   -3.4667    0.0000 C   0  0  0  0  0  0  0  0  0  0  0  0
    5.2167   -1.4917    0.0000 C   0  0  0  0  0  0  0  0  0  0  0  0
    5.9292   -1.3792    0.0000 C   0  0  0  0  0  0  0  0  0  0  0  0
    2.3917   -3.8792    0.0000 C   0  0  0  0  0  0  0  0  0  0  0  0
    0.9667   -4.7042    0.0000 C   0  0  0  0  0  0  0  0  0  0  0  0
    0.2542   -5.1167    0.0000 Cl  0  0  0  0  0  0  0  0  0  0  0  0
    7.3917   -2.6250    0.0000 Cl  0  0  0  0  0  0  0  0  0  0  0  0
    1.6750   -0.9917    0.0000 C   0  0  0  0  0  0  0  0  0  0  0  0
    1.6792   -3.4667    0.0000 C   0  0  0  0  0  0  0  0  0  0  0  0
    2.4000   -4.7000    0.0000 C   0  0  0  0  0  0  0  0  0  0  0  0
    1.6917   -5.1167    0.0000 C   0  0  0  0  0  0  0  0  0  0  0  0
    0.9667   -3.8792    0.0000 C   0  0  0  0  0  0  0  0  0  0  0  0
    5.9250    0.1583    0.0000 C   0  0  0  0  0  0  0  0  0  0  0  0
    1.6750   -2.6417    0.0000 C   0  0  0  0  0  0  0  0  0  0  0  0
    7.1375   -0.6375    0.0000 C   0  0  0  0  0  0  0  0  0  0  0  0
    5.0500    0.3333    0.0000 C   0  0  0  0  0  0  0  0  0  0  0  0
    4.4292   -0.2417    0.0000 C   0  0  0  0  0  0  0  0  0  0  0  0
    0.9625   -1.4042    0.0000 C   0  0  0  0  0  0  0  0  0  0  0  0
    0.9625   -2.2292    0.0000 C   0  0  0  0  0  0  0  0  0  0  0  0
  2  1  1  0
  3  1  1  0
  4  2  2  0
  5  3  1  0
  6  5  2  0
  7  1  1  0
  8 12  1  0
  9  3  2  0
 10  4  1  0
 11  7  1  0
 12 11  1  0
 13 10  1  0
 14 21  2  0
 15 14  1  0
 17  5  1  0
 18 13  2  0
 19 13  1  0
 20 19  2  0
 21 18  1  0
 22 25  1  0
 23  6  1  0
 24  8  1  0
 25 26  1  0
 26  7  1  0
 27 17  2  0
 28 27  1  0
  4  6  1  0
 22  8  1  0
 23 28  2  0
 20 14  1  0
M  END
>  <ID>  (868) 


>  <MOLENAME>  (868) 
AZELASTINE HYDROCHLORIDE

>  <therap>  (868) 
H1 antihistamine (nonsedating); leucotriene synthesis blocker

>  <ref>  (868) 
Int Arch Allergy Appl Immun 83:284 (1987)

>  <cas#>  (868) 
58581-89-8

>  <source>  (868) 
synthetic

>  <status>  (868) 
USAN, INN, BAN, JAN

>  <tradename>  (868) 
ASTENIL

>  <SMILES>  (868) 
CN1CCCC(n2nc(Cc3ccc(Cl)cc3)c3c(cccc3)c2=O)CC1

>  <standardized_failed>  (868) 
False

$$$$

     RDKit          2D

 39 41  0  0  0  0  0  0  0  0999 V2000
    3.9917   -1.4500    0.0000 N   0  0  0  0  0  0  0  0  0  0  0  0
    3.9917   -0.6250    0.0000 C   0  0  0  0  0  0  0  0  0  0  0  0
    3.2708   -1.8625    0.0000 C   0  0  0  0  0  0  0  0  0  0  0  0
    2.5583   -1.4500    0.0000 C   0  0  0  0  0  0  0  0  0  0  0  0
    3.2708   -0.2083    0.0000 N   0  0  0  0  0  0  0  0  0  0  0  0
    2.5583   -0.6250    0.0000 C   0  0  0  0  0  0  0  0  0  0  0  0
    4.7042   -1.8625    0.0000 C   0  0  0  0  0  0  0  0  0  0  0  0
    8.2583   -3.1083    0.0000 C   0  0  0  0  0  0  0  0  0  0  0  0
    6.1292   -1.8708    0.0000 N   0  0  0  0  0  0  0  0  0  0  0  0
    4.7083   -0.2125    0.0000 O   0  0  0  0  0  0  0  0  0  0  0  0
    3.2708   -2.6875    0.0000 O   0  0  0  0  0  0  0  0  0  0  0  0
    8.9708   -2.6958    0.0000 C   0  0  0  0  0  0  0  0  0  0  0  0
    7.5458   -2.6875    0.0000 C   0  0  0  0  0  0  0  0  0  0  0  0
    8.2542   -3.9333    0.0000 O   0  0  0  0  0  0  0  0  0  0  0  0
    5.4167   -1.4583    0.0000 C   0  0  0  0  0  0  0  0  0  0  0  0
    9.6833   -3.1125    0.0000 C   0  0  0  0  0  0  0  0  0  0  0  0
    8.9708   -1.8750    0.0000 C   0  0  0  0  0  0  0  0  0  0  0  0
    7.5458   -1.8708    0.0000 C   0  0  0  0  0  0  0  0  0  0  0  0
    6.8333   -3.1000    0.0000 C   0  0  0  0  0  0  0  0  0  0  0  0
    6.8417   -1.4625    0.0000 C   0  0  0  0  0  0  0  0  0  0  0  0
    6.1208   -2.6875    0.0000 C   0  0  0  0  0  0  0  0  0  0  0  0
   10.4042   -1.8750    0.0000 C   0  0  0  0  0  0  0  0  0  0  0  0
    1.8458   -1.8625    0.0000 C   0  0  0  0  0  0  0  0  0  0  0  0
    9.6833   -1.4625    0.0000 C   0  0  0  0  0  0  0  0  0  0  0  0
   10.3958   -2.7083    0.0000 C   0  0  0  0  0  0  0  0  0  0  0  0
   11.1167   -1.4708    0.0000 F   0  0  0  0  0  0  0  0  0  0  0  0
    1.8458   -0.2125    0.0000 C   0  0  0  0  0  0  0  0  0  0  0  0
    1.1333   -1.4500    0.0000 C   0  0  0  0  0  0  0  0  0  0  0  0
    1.1333   -0.6250    0.0000 C   0  0  0  0  0  0  0  0  0  0  0  0
    4.9167   -4.0208    0.0000 C   0  0  0  0  0  0  0  0  0  0  0  0
    5.3542   -3.7708    0.0000 C   0  0  0  0  0  0  0  0  0  0  0  0
    4.4750   -3.7708    0.0000 C   0  0  0  0  0  0  0  0  0  0  0  0
    5.7958   -4.0208    0.0000 C   0  0  0  0  0  0  0  0  0  0  0  0
    4.0292   -4.0208    0.0000 O   0  0  0  0  0  0  0  0  0  0  0  0
    5.7958   -4.5375    0.0000 O   0  0  0  0  0  0  0  0  0  0  0  0
    5.3542   -3.2625    0.0000 O   0  0  0  0  0  0  0  0  0  0  0  0
    4.9167   -4.5375    0.0000 O   0  0  0  0  0  0  0  0  0  0  0  0
    6.2417   -3.7708    0.0000 O   0  0  0  0  0  0  0  0  0  0  0  0
    4.4750   -3.2625    0.0000 O   0  0  0  0  0  0  0  0  0  0  0  0
 10  2  2  0
 11  3  2  0
 12  8  1  0
 13 19  1  0
 14  8  2  0
 15  7  1  0
 16 12  2  0
 17 12  1  0
 18 20  1  0
 19 21  1  0
 20  9  1  0
 21  9  1  0
 22 24  1  0
 23  4  2  0
 24 17  2  0
 25 16  1  0
 26 22  1  0
 27  6  2  0
 28 23  1  0
 29 28  2  0
  6  5  1  0
 13 18  1  0
 27 29  1  0
 22 25  2  0
  2  1  1  0
  3  1  1  0
  4  3  1  0
  5  2  1  0
  6  4  1  0
  7  1  1  0
  8 13  1  0
  9 15  1  0
 31 30  1  0
 32 30  1  0
 33 31  1  0
 34 32  2  0
 35 33  2  0
 31 36  1  1
 30 37  1  1
 38 33  1  0
 39 32  1  0
M  END
>  <ID>  (869) 


>  <MOLENAME>  (869) 
KETANSERIN TARTRATE

>  <therap>  (869) 
5HT2/5HT1C seritonin antagonist

>  <ref>  (869) 
J Pharmacol Exp Therap 218:217 (1981); Drug Dev Res 6:263 (1985)

>  <cas#>  (869) 
83846-83-7, 74050-98-9(base)

>  <source>  (869) 
synthetic; R41468

>  <status>  (869) 
USAN, INN, BAN

>  <tradename>  (869) 
nan

>  <SMILES>  (869) 
O=C(c1ccc(F)cc1)C1CCN(CCn2c(=O)[nH]c3ccccc3c2=O)CC1

>  <standardized_failed>  (869) 
False

$$$$

     RDKit          2D

 16 16  0  0  0  0  0  0  0  0999 V2000
    3.8875   -1.8667    0.0000 C   0  0  0  0  0  0  0  0  0  0  0  0
    4.2917   -1.1542    0.0000 C   0  0  0  0  0  0  0  0  0  0  0  0
    3.1750   -1.4542    0.0000 C   0  0  0  0  0  0  0  0  0  0  0  0
    5.1125   -1.0583    0.0000 S   0  0  0  0  0  0  0  0  0  0  0  0
    3.9542   -0.4042    0.0000 C   0  0  0  0  0  0  0  0  0  0  0  0
    5.2750   -0.2500    0.0000 C   0  0  0  0  0  0  0  0  0  0  0  0
    4.6792   -2.0792    0.0000 N   0  0  0  0  0  0  0  0  0  0  0  0
    4.5583    0.1542    0.0000 C   0  0  0  0  0  0  0  0  0  0  0  0
    3.1750   -0.6292    0.0000 O   0  0  0  0  0  0  0  0  0  0  0  0
    3.8875   -2.6917    0.0000 C   0  0  0  0  0  0  0  0  0  0  0  0
    6.6167   -1.3042    0.0000 Cl  0  0  0  0  0  0  0  0  0  0  0  0
    2.4667   -1.8667    0.0000 C   0  0  0  0  0  0  0  0  0  0  0  0
    4.8958   -2.8792    0.0000 C   0  0  0  0  0  0  0  0  0  0  0  0
    3.1750   -3.1042    0.0000 C   0  0  0  0  0  0  0  0  0  0  0  0
    5.6917   -3.0917    0.0000 C   0  0  0  0  0  0  0  0  0  0  0  0
    2.4667   -2.6917    0.0000 C   0  0  0  0  0  0  0  0  0  0  0  0
  2  1  1  0
  3  1  1  0
  4  2  1  0
  5  2  2  0
  6  4  1  0
  7  1  1  0
  8  5  1  0
  9  3  2  0
 10  1  1  0
 12  3  1  0
 13  7  1  0
 14 10  1  0
 15 13  1  0
 16 12  1  0
  8  6  2  0
 14 16  1  0
M  END
>  <ID>  (870) 


>  <MOLENAME>  (870) 
TILETAMINE HYDROCHLORIDE

>  <therap>  (870) 
anesthetic, anticonvulsant

>  <ref>  (870) 
J Wildlife Diseases 36:670 (2000); J Wildlife Management 73:210 (2009)

>  <cas#>  (870) 
14176-50-2

>  <source>  (870) 
synthetic; CL-399

>  <status>  (870) 
USAN, INN, BAN

>  <tradename>  (870) 
TELAZOL

>  <SMILES>  (870) 
CCNC1(c2cccs2)CCCCC1=O

>  <standardized_failed>  (870) 
False

$$$$

     RDKit          2D

 30 31  0  0  0  0  0  0  0  0999 V2000
   10.0042   -4.1292    0.0000 C   0  0  0  0  0  0  0  0  0  0  0  0
    8.5875   -4.1292    0.0000 C   0  0  0  0  0  0  0  0  0  0  0  0
    9.2917   -4.5417    0.0000 C   0  0  0  0  0  0  0  0  0  0  0  0
    8.5875   -3.3125    0.0000 C   0  0  0  0  0  0  0  0  0  0  0  0
    9.2917   -2.9042    0.0000 N   0  0  0  0  0  0  0  0  0  0  0  0
    7.8792   -4.5500    0.0000 C   0  0  0  0  0  0  0  0  0  0  0  0
   10.7167   -4.5417    0.0000 C   0  0  0  0  0  0  0  0  0  0  0  0
   10.0042   -3.3125    0.0000 C   0  0  0  0  0  0  0  0  0  0  0  0
    7.8667   -2.9042    0.0000 C   0  0  0  0  0  0  0  0  0  0  0  0
    7.1667   -4.1292    0.0000 C   0  0  0  0  0  0  0  0  0  0  0  0
    7.1625   -3.3167    0.0000 C   0  0  0  0  0  0  0  0  0  0  0  0
   10.7167   -5.3667    0.0000 O   0  0  0  0  0  0  0  0  0  0  0  0
    9.2917   -5.3667    0.0000 O   0  0  0  0  0  0  0  0  0  0  0  0
   11.4292   -4.1292    0.0000 O   0  0  0  0  0  0  0  0  0  0  0  0
    6.4542   -4.5500    0.0000 O   0  0  0  0  0  0  0  0  0  0  0  0
    6.4417   -2.9042    0.0000 O   0  0  0  0  0  0  0  0  0  0  0  0
   12.1417   -4.5417    0.0000 C   0  0  0  0  0  0  0  0  0  0  0  0
    6.4417   -2.0792    0.0000 C   0  0  0  0  0  0  0  0  0  0  0  0
    5.7417   -4.1292    0.0000 C   0  0  0  0  0  0  0  0  0  0  0  0
    5.0292   -4.5500    0.0000 C   0  0  0  0  0  0  0  0  0  0  0  0
    0.0375   -4.1292    0.0000 C   0  0  0  0  0  0  0  0  0  0  0  0
    0.7542   -4.5500    0.0000 C   0  0  0  0  0  0  0  0  0  0  0  0
    2.1792   -4.5500    0.0000 C   0  0  0  0  0  0  0  0  0  0  0  0
    2.8917   -4.1292    0.0000 C   0  0  0  0  0  0  0  0  0  0  0  0
    3.6042   -4.5500    0.0000 C   0  0  0  0  0  0  0  0  0  0  0  0
    4.3167   -4.1292    0.0000 C   0  0  0  0  0  0  0  0  0  0  0  0
    1.4667   -4.1292    0.0000 C   0  0  0  0  0  0  0  0  0  0  0  0
    5.7250   -1.6750    0.0000 C   0  0  0  0  0  0  0  0  0  0  0  0
   12.8542   -4.1292    0.0000 C   0  0  0  0  0  0  0  0  0  0  0  0
   -0.6750   -4.5500    0.0000 C   0  0  0  0  0  0  0  0  0  0  0  0
  2  3  1  0
  3  1  2  0
  4  5  1  0
  5  8  2  0
  6  2  2  0
  7  1  1  0
  8  1  1  0
  9  4  2  0
 10  6  1  0
 11  9  1  0
 12  7  2  0
 13  3  1  0
 14  7  1  0
 15 10  1  0
 16 11  1  0
 17 14  1  0
 18 16  1  0
 19 15  1  0
 20 19  1  0
 21 22  1  0
 22 27  1  0
 23 24  1  0
 24 25  1  0
 25 26  1  0
 26 20  1  0
 27 23  1  0
 28 18  1  0
 29 17  1  0
 30 21  1  0
  2  4  1  0
 10 11  2  0
M  END
>  <ID>  (871) 


>  <MOLENAME>  (871) 
DECOQUINATE

>  <therap>  (871) 
coccidiostat

>  <ref>  (871) 
Biochim. Biophys. Acta, Bioenerg. (1975), 396(2), 210-19; Br. Vet. J. (1968), 124(5), 209-18; Chem. Ind. (1968), (2), 56-7

>  <cas#>  (871) 
18507-89-6

>  <source>  (871) 
synthetic; M&B-15497, HC-1528

>  <status>  (871) 
USP, INN, BAN

>  <tradename>  (871) 
nan

>  <SMILES>  (871) 
CCCCCCCCCCOc1c(OCC)cc2ncc(C(=O)OCC)c(O)c2c1

>  <standardized_failed>  (871) 
False

$$$$

     RDKit          2D

 41 44  0  0  0  0  0  0  0  0999 V2000
    3.4625   -0.2000    0.0000 N   0  0  0  0  0  0  0  0  0  0  0  0
    2.6417   -0.2042    0.0000 C   0  0  0  0  0  0  0  0  0  0  0  0
    2.6417   -1.0292    0.0000 C   0  0  0  0  0  0  0  0  0  0  0  0
    3.4625   -1.0167    0.0000 C   0  0  0  0  0  0  0  0  0  0  0  0
    4.1667    0.2208    0.0000 C   0  0  0  0  0  0  0  0  0  0  0  0
   -0.2708   -1.8667    0.0000 C   0  0  0  0  0  0  0  0  0  0  0  0
    0.4417   -1.4542    0.0000 C   0  0  0  0  0  0  0  0  0  0  0  0
   -0.9375   -1.3792    0.0000 N   0  0  0  0  0  0  0  0  0  0  0  0
    1.8667   -1.4500    0.0000 N   0  0  0  0  0  0  0  0  0  0  0  0
    1.1542   -1.8625    0.0000 C   0  0  0  0  0  0  0  0  0  0  0  0
    4.1750   -1.4292    0.0000 S   0  0  0  0  0  0  0  0  0  0  0  0
    4.8792   -0.1917    0.0000 C   0  0  0  0  0  0  0  0  0  0  0  0
   -1.6000   -1.8667    0.0000 C   0  0  0  0  0  0  0  0  0  0  0  0
   -0.5250   -2.6542    0.0000 C   0  0  0  0  0  0  0  0  0  0  0  0
    6.3167   -1.0167    0.0000 C   0  0  0  0  0  0  0  0  0  0  0  0
    4.1667    1.0458    0.0000 C   0  0  0  0  0  0  0  0  0  0  0  0
   -1.3500   -2.6542    0.0000 S   0  0  0  0  0  0  0  0  0  0  0  0
    6.7292   -2.2792    0.0000 N   0  0  0  0  0  0  0  0  0  0  0  0
    5.5917    0.2208    0.0000 C   0  0  0  0  0  0  0  0  0  0  0  0
    6.9792   -1.5000    0.0000 C   0  0  0  0  0  0  0  0  0  0  0  0
    6.3125   -0.1917    0.0000 C   0  0  0  0  0  0  0  0  0  0  0  0
    7.0125    1.0625    0.0000 C   0  0  0  0  0  0  0  0  0  0  0  0
    5.9042   -2.2875    0.0000 C   0  0  0  0  0  0  0  0  0  0  0  0
    5.6500   -1.5042    0.0000 S   0  0  0  0  0  0  0  0  0  0  0  0
    4.8875   -1.0167    0.0000 C   0  0  0  0  0  0  0  0  0  0  0  0
    0.4417   -0.6292    0.0000 N   0  0  0  0  0  0  0  0  0  0  0  0
    2.0542    0.3750    0.0000 O   0  0  0  0  0  0  0  0  0  0  0  0
    7.7167    1.4833    0.0000 C   0  0  0  0  0  0  0  0  0  0  0  0
    1.1542   -2.6875    0.0000 O   0  0  0  0  0  0  0  0  0  0  0  0
    4.8667    1.4583    0.0000 O   0  0  0  0  0  0  0  0  0  0  0  0
    6.2917    1.4708    0.0000 O   0  0  0  0  0  0  0  0  0  0  0  0
    5.5875    1.0583    0.0000 C   0  0  0  0  0  0  0  0  0  0  0  0
    3.4417    1.4500    0.0000 O   0  0  0  0  0  0  0  0  0  0  0  0
    7.0167    0.2375    0.0000 O   0  0  0  0  0  0  0  0  0  0  0  0
   -2.3833   -1.6125    0.0000 N   0  0  0  0  0  0  0  0  0  0  0  0
    1.1542   -0.2125    0.0000 O   0  0  0  0  0  0  0  0  0  0  0  0
    7.7667   -1.2417    0.0000 C   0  0  0  0  0  0  0  0  0  0  0  0
    7.7125    2.3083    0.0000 C   0  0  0  0  0  0  0  0  0  0  0  0
    8.4292    1.8958    0.0000 C   0  0  0  0  0  0  0  0  0  0  0  0
    8.4292    1.0708    0.0000 C   0  0  0  0  0  0  0  0  0  0  0  0
    1.1500    0.6125    0.0000 C   0  0  0  0  0  0  0  0  0  0  0  0
  2  1  1  0
  3  4  1  0
  4  1  1  0
  5  1  1  0
  6  7  1  0
  7 10  1  0
  8  6  1  0
  9  3  1  0
 10  9  1  0
 11  4  1  0
 12  5  2  0
 13  8  2  0
 14  6  2  0
 15 21  1  0
 16  5  1  0
 17 14  1  0
 18 20  1  0
 19 12  1  0
 20 15  2  0
 21 19  2  0
 22 31  1  0
 23 24  1  0
 24 15  1  0
 25 12  1  0
 26  7  2  0
 27  2  2  0
 28 22  1  0
 29 10  2  0
 30 16  1  0
 31 32  1  0
 32 30  1  0
 33 16  2  0
 34 22  2  0
 35 13  1  0
 36 26  1  0
 37 20  1  0
 38 28  1  0
 39 28  1  0
 40 28  1  0
 41 36  1  0
  3  2  1  0
 25 11  1  0
 18 23  2  0
 17 13  1  0
M  END
>  <ID>  (872) 


>  <MOLENAME>  (872) 
CEFDITORIN PIVOXIL

>  <therap>  (872) 
antibacterial

>  <ref>  (872) 
Antimicrob Agents Chemother 32:1421 (1988); Drugs Exper Clin Res 20:127 (1994)

>  <cas#>  (872) 
117467-28-4

>  <source>  (872) 
semisynthetic

>  <status>  (872) 
USAN, INN, JAN

>  <tradename>  (872) 
SPECTRACEF

>  <SMILES>  (872) 
CO/N=C(\C(=O)NC1C(=O)N2C(C(=O)OCOC(=O)C(C)(C)C)=C(/C=C\c3c(C)ncs3)CSC12)c1csc(N)n1

>  <standardized_failed>  (872) 
False

$$$$

     RDKit          2D

 24 24  0  0  0  0  0  0  0  0999 V2000
    2.3667   -3.7292    0.0000 C   0  0  0  0  0  0  0  0  0  0  0  0
    2.3667   -2.9042    0.0000 C   0  0  0  0  0  0  0  0  0  0  0  0
    1.6500   -4.1417    0.0000 N   0  0  0  0  0  0  0  0  0  0  0  0
    3.1542   -3.9792    0.0000 N   0  0  0  0  0  0  0  0  0  0  0  0
    0.9375   -2.9042    0.0000 N   0  0  0  0  0  0  0  0  0  0  0  0
    3.1500   -2.6417    0.0000 N   0  0  0  0  0  0  0  0  0  0  0  0
    1.6500   -2.4917    0.0000 C   0  0  0  0  0  0  0  0  0  0  0  0
    0.9375   -3.7292    0.0000 C   0  0  0  0  0  0  0  0  0  0  0  0
    3.6417   -3.3042    0.0000 C   0  0  0  0  0  0  0  0  0  0  0  0
    6.9792   -5.1625    0.0000 C   0  0  0  0  0  0  0  0  0  0  0  0
    7.6917   -4.7500    0.0000 C   0  0  0  0  0  0  0  0  0  0  0  0
    1.6417   -1.6667    0.0000 O   0  0  0  0  0  0  0  0  0  0  0  0
    3.4167   -4.7625    0.0000 C   0  0  0  0  0  0  0  0  0  0  0  0
    6.9792   -5.9875    0.0000 O   0  0  0  0  0  0  0  0  0  0  0  0
    0.2167   -4.1417    0.0000 N   0  0  0  0  0  0  0  0  0  0  0  0
    7.6875   -3.9250    0.0000 N   0  0  0  0  0  0  0  0  0  0  0  0
    8.4042   -5.1542    0.0000 C   0  0  0  0  0  0  0  0  0  0  0  0
    6.2667   -4.7542    0.0000 O   0  0  0  0  0  0  0  0  0  0  0  0
    5.7417   -3.2125    0.0000 Cl  0  0  0  0  0  0  0  0  0  0  0  0
    4.1292   -5.1667    0.0000 O   0  0  0  0  0  0  0  0  0  0  0  0
    5.5542   -5.1667    0.0000 C   0  0  0  0  0  0  0  0  0  0  0  0
    8.4042   -5.9792    0.0000 C   0  0  0  0  0  0  0  0  0  0  0  0
    9.1167   -4.7417    0.0000 C   0  0  0  0  0  0  0  0  0  0  0  0
    4.8417   -4.7542    0.0000 C   0  0  0  0  0  0  0  0  0  0  0  0
  2  1  2  0
  3  1  1  0
  4  1  1  0
  5  8  1  0
  6  2  1  0
  7  2  1  0
  8  3  2  0
  9  4  1  0
 10 18  1  0
 11 10  1  0
 12  7  2  0
 13  4  1  0
 14 10  2  0
 15  8  1  0
 11 16  1  1
 17 11  1  0
 18 21  1  0
 20 13  1  0
 21 24  1  0
 22 17  1  0
 23 17  1  0
 24 20  1  0
  6  9  2  0
  5  7  1  0
M  END
>  <ID>  (873) 


>  <MOLENAME>  (873) 
VALACYCLOVIR HYDROCHLORIDE

>  <therap>  (873) 
antiviral

>  <ref>  (873) 
Drugs 52:754 (1996); N Engl J Med 340:1462 (1999); 350:11 (2004)

>  <cas#>  (873) 
124832-27-5

>  <source>  (873) 
synthetic; BW-256-U-87

>  <status>  (873) 
USAN, INN, BAN

>  <tradename>  (873) 
VALTREX

>  <SMILES>  (873) 
CC(C)[C@H](N)C(=O)OCCOCn1cnc2c1nc(N)[nH]c2=O

>  <standardized_failed>  (873) 
False

$$$$

     RDKit          2D

 22 23  0  0  0  0  0  0  0  0999 V2000
    3.5542   -4.4792    0.0000 C   0  0  0  0  0  0  0  0  0  0  0  0
    4.9750   -2.8292    0.0000 C   0  0  0  0  0  0  0  0  0  0  0  0
    4.2625   -3.2417    0.0000 O   0  0  0  0  0  0  0  0  0  0  0  0
    2.8000   -4.1417    0.0000 S   0  0  0  0  0  0  0  0  0  0  0  0
    4.2667   -4.0667    0.0000 C   0  0  0  0  0  0  0  0  0  0  0  0
    4.9667   -2.0042    0.0000 C   0  0  0  0  0  0  0  0  0  0  0  0
    3.4667   -5.3000    0.0000 C   0  0  0  0  0  0  0  0  0  0  0  0
    2.2500   -4.7542    0.0000 C   0  0  0  0  0  0  0  0  0  0  0  0
    2.6625   -5.4667    0.0000 C   0  0  0  0  0  0  0  0  0  0  0  0
    5.6792   -1.5917    0.0000 C   0  0  0  0  0  0  0  0  0  0  0  0
    4.9792   -4.4792    0.0000 C   0  0  0  0  0  0  0  0  0  0  0  0
    6.4042   -4.4750    0.0000 N   0  0  0  0  0  0  0  0  0  0  0  0
    7.9875   -3.0167    0.0000 Cl  0  0  0  0  0  0  0  0  0  0  0  0
    5.6875   -3.2417    0.0000 C   0  0  0  0  0  0  0  0  0  0  0  0
    6.4042   -2.8292    0.0000 C   0  0  0  0  0  0  0  0  0  0  0  0
    5.6917   -4.0667    0.0000 C   0  0  0  0  0  0  0  0  0  0  0  0
    4.2625   -1.6042    0.0000 C   0  0  0  0  0  0  0  0  0  0  0  0
    6.4000   -2.0042    0.0000 C   0  0  0  0  0  0  0  0  0  0  0  0
    7.1167   -4.0625    0.0000 C   0  0  0  0  0  0  0  0  0  0  0  0
    5.6750   -0.7792    0.0000 C   0  0  0  0  0  0  0  0  0  0  0  0
    4.2542   -0.7875    0.0000 C   0  0  0  0  0  0  0  0  0  0  0  0
    4.9625   -0.3667    0.0000 C   0  0  0  0  0  0  0  0  0  0  0  0
  2  3  1  0
  5  3  1  0
  4  1  1  0
  5  1  1  0
  6  2  1  0
  7  1  2  0
  8  4  1  0
  9  7  1  0
 10  6  2  0
  5 11  1  1
 12 16  1  0
 14  2  2  0
 15 14  1  0
 16 11  1  0
 17  6  1  0
 18 15  2  0
 19 12  1  0
 20 10  1  0
 21 17  2  0
 22 21  1  0
  9  8  2  0
 18 10  1  0
 22 20  2  0
M  END
>  <ID>  (874) 


>  <MOLENAME>  (874) 
DULOXETINE HYDROCHLORIDE

>  <therap>  (874) 
antidepressant

>  <ref>  (874) 
Drugs (2004), 64(22), 2567-2573; J. Pharmacol. Exp. Ther. (1994), 269(1), 132-6; Neuropsychopharmacology (1993), 8(1), 23-33

>  <cas#>  (874) 
136434-34-9

>  <source>  (874) 
synthetic; LY-248686

>  <status>  (874) 
USAN, INN, BAN

>  <tradename>  (874) 
CYMBALTA

>  <SMILES>  (874) 
CNCC[C@H](Oc1cccc2c1cccc2)c1cccs1

>  <standardized_failed>  (874) 
False

$$$$

     RDKit          2D

 28 29  0  0  0  0  0  0  0  0999 V2000
    4.7375   -3.9042    0.0000 C   0  0  0  0  0  0  0  0  0  0  0  0
    3.3042   -3.9042    0.0000 C   0  0  0  0  0  0  0  0  0  0  0  0
    4.0167   -3.5000    0.0000 C   0  0  0  0  0  0  0  0  0  0  0  0
    4.7375   -4.7292    0.0000 C   0  0  0  0  0  0  0  0  0  0  0  0
    3.3042   -4.7292    0.0000 C   0  0  0  0  0  0  0  0  0  0  0  0
    4.0167   -5.1500    0.0000 N   0  0  0  0  0  0  0  0  0  0  0  0
    2.5917   -2.6750    0.0000 N   0  0  0  0  0  0  0  0  0  0  0  0
    4.0167   -2.6750    0.0000 C   0  0  0  0  0  0  0  0  0  0  0  0
    3.3042   -2.2625    0.0000 C   0  0  0  0  0  0  0  0  0  0  0  0
    5.7125   -3.8667    0.0000 C   0  0  0  0  0  0  0  0  0  0  0  0
    2.3042   -3.9000    0.0000 C   0  0  0  0  0  0  0  0  0  0  0  0
    1.9667   -1.8667    0.0000 O   0  0  0  0  0  0  0  0  0  0  0  0
    1.8417   -3.0542    0.0000 O   0  0  0  0  0  0  0  0  0  0  0  0
    6.8417   -3.9042    0.0000 O   0  0  0  0  0  0  0  0  0  0  0  0
    5.9292   -4.6792    0.0000 O   0  0  0  0  0  0  0  0  0  0  0  0
    1.9667   -4.7750    0.0000 O   0  0  0  0  0  0  0  0  0  0  0  0
    1.3042   -3.9000    0.0000 O   0  0  0  0  0  0  0  0  0  0  0  0
    2.5917   -5.1417    0.0000 C   0  0  0  0  0  0  0  0  0  0  0  0
    5.4542   -5.1417    0.0000 C   0  0  0  0  0  0  0  0  0  0  0  0
    7.5542   -3.4917    0.0000 C   0  0  0  0  0  0  0  0  0  0  0  0
    4.7375   -2.2625    0.0000 C   0  0  0  0  0  0  0  0  0  0  0  0
    3.3042   -1.4375    0.0000 C   0  0  0  0  0  0  0  0  0  0  0  0
    8.2750   -3.9000    0.0000 C   0  0  0  0  0  0  0  0  0  0  0  0
    0.3417   -3.2417    0.0000 C   0  0  0  0  0  0  0  0  0  0  0  0
    4.7375   -1.4292    0.0000 C   0  0  0  0  0  0  0  0  0  0  0  0
    8.2750   -4.7250    0.0000 C   0  0  0  0  0  0  0  0  0  0  0  0
    8.9875   -3.4792    0.0000 C   0  0  0  0  0  0  0  0  0  0  0  0
    4.0167   -1.0167    0.0000 C   0  0  0  0  0  0  0  0  0  0  0  0
  2  3  1  0
  3  1  1  0
  4  1  2  0
  5  6  1  0
  6  4  1  0
  7  9  1  0
  8  3  1  0
  9  8  2  0
 10  1  1  0
 11  2  1  0
 12  7  1  0
 13  7  2  0
 14 10  1  0
 15 10  2  0
 16 11  2  0
 17 11  1  0
 18  5  1  0
 19  4  1  0
 20 14  1  0
 21  8  1  0
 22  9  1  0
 23 20  1  0
 24 17  1  0
 25 21  2  0
 26 23  1  0
 27 23  1  0
 28 25  1  0
  5  2  2  0
 28 22  2  0
M  CHG  2   7   1  12  -1
M  END
>  <ID>  (875) 


>  <MOLENAME>  (875) 
NISOLDIPINE

>  <therap>  (875) 
vasodilator (coronary)

>  <ref>  (875) 
Drugs (1996), 52(2), 232-253; Cardiovasc. Drugs Ther. (1987), 1(4), 393-402; Arzneim. Forsch. (1980), 30(12), 2144-62

>  <cas#>  (875) 
63675-72-9

>  <source>  (875) 
synthetic; bayk-5552

>  <status>  (875) 
USAN, INN, BAN, JAN

>  <tradename>  (875) 
SULAR

>  <SMILES>  (875) 
COC(=O)C1=C(C)NC(C)=C(C(=O)OCC(C)C)C1c1c([N+](=O)[O-])cccc1

>  <standardized_failed>  (875) 
False

$$$$

     RDKit          2D

 41 44  0  0  0  0  0  0  0  0999 V2000
    6.2750   -2.6875    0.0000 C   0  0  0  0  0  0  0  0  0  0  0  0
    0.5833   -4.3583    0.0000 N   0  0  0  0  0  0  0  0  0  0  0  0
   -0.1333   -3.9458    0.0000 C   0  0  0  0  0  0  0  0  0  0  0  0
    6.2708   -1.8625    0.0000 C   0  0  0  0  0  0  0  0  0  0  0  0
    5.5667   -3.1042    0.0000 S   0  0  0  0  0  0  0  0  0  0  0  0
    6.9833   -1.4458    0.0000 C   0  0  0  0  0  0  0  0  0  0  0  0
    7.1000   -2.6833    0.0000 C   0  0  0  0  0  0  0  0  0  0  0  0
    6.6917   -3.4000    0.0000 C   0  0  0  0  0  0  0  0  0  0  0  0
    6.9958   -6.3958    0.0000 C   0  0  0  0  0  0  0  0  0  0  0  0
   -0.8500   -4.3625    0.0000 C   0  0  0  0  0  0  0  0  0  0  0  0
    5.5667   -3.9292    0.0000 C   0  0  0  0  0  0  0  0  0  0  0  0
    6.2833   -6.8083    0.0000 C   0  0  0  0  0  0  0  0  0  0  0  0
    4.8500   -4.3375    0.0000 C   0  0  0  0  0  0  0  0  0  0  0  0
    2.0042   -4.3500    0.0000 C   0  0  0  0  0  0  0  0  0  0  0  0
    2.7167   -3.9375    0.0000 C   0  0  0  0  0  0  0  0  0  0  0  0
    1.2958   -3.9417    0.0000 C   0  0  0  0  0  0  0  0  0  0  0  0
   -0.1333   -3.1208    0.0000 C   0  0  0  0  0  0  0  0  0  0  0  0
    7.0000   -5.5708    0.0000 C   0  0  0  0  0  0  0  0  0  0  0  0
    6.9792   -0.6208    0.0000 O   0  0  0  0  0  0  0  0  0  0  0  0
    4.1417   -3.9292    0.0000 C   0  0  0  0  0  0  0  0  0  0  0  0
    7.7000   -1.8542    0.0000 O   0  0  0  0  0  0  0  0  0  0  0  0
    6.2792   -4.3375    0.0000 C   0  0  0  0  0  0  0  0  0  0  0  0
    6.2833   -5.1625    0.0000 C   0  0  0  0  0  0  0  0  0  0  0  0
   -1.5625   -3.9500    0.0000 C   0  0  0  0  0  0  0  0  0  0  0  0
    0.5750   -2.7042    0.0000 C   0  0  0  0  0  0  0  0  0  0  0  0
   -0.8500   -2.7083    0.0000 C   0  0  0  0  0  0  0  0  0  0  0  0
    3.4333   -4.3417    0.0000 C   0  0  0  0  0  0  0  0  0  0  0  0
    5.5667   -7.2167    0.0000 O   0  0  0  0  0  0  0  0  0  0  0  0
    1.2917   -3.1125    0.0000 C   0  0  0  0  0  0  0  0  0  0  0  0
   -1.5625   -3.1250    0.0000 C   0  0  0  0  0  0  0  0  0  0  0  0
   -2.2792   -4.3625    0.0000 Cl  0  0  0  0  0  0  0  0  0  0  0  0
    3.9667   -0.6542    0.0000 Na  0  0  0  0  0 15  0  0  0  0  0  0
    4.8542   -5.1583    0.0000 C   0  0  0  0  0  0  0  0  0  0  0  0
    4.1417   -5.5708    0.0000 C   0  0  0  0  0  0  0  0  0  0  0  0
    7.7125   -6.8042    0.0000 C   0  0  0  0  0  0  0  0  0  0  0  0
    5.5708   -6.3958    0.0000 C   0  0  0  0  0  0  0  0  0  0  0  0
    6.2833   -7.6333    0.0000 C   0  0  0  0  0  0  0  0  0  0  0  0
    7.7042   -5.1542    0.0000 C   0  0  0  0  0  0  0  0  0  0  0  0
    3.4292   -5.1583    0.0000 C   0  0  0  0  0  0  0  0  0  0  0  0
    8.4250   -6.3917    0.0000 C   0  0  0  0  0  0  0  0  0  0  0  0
    8.4208   -5.5625    0.0000 C   0  0  0  0  0  0  0  0  0  0  0  0
  2 16  2  0
  3  2  1  0
  4  1  1  0
  5  1  1  0
  6  4  1  0
  7  1  1  0
  8  1  1  0
  9 18  2  0
 10  3  2  0
 11  5  1  0
 12  9  1  0
 13 11  1  0
 14 15  2  0
 15 27  1  0
 16 14  1  0
 17 25  1  0
 18 23  1  0
 19  6  1  0
 20 13  2  0
 21  6  2  0
 11 22  1  6
 23 22  1  0
 24 10  1  0
 25 29  2  0
 26 17  2  0
 27 20  1  0
 28 12  1  0
 29 16  1  0
 30 26  1  0
 31 24  1  0
 33 13  1  0
 34 33  2  0
 35  9  1  0
 36 12  1  0
 37 12  1  0
 38 18  1  0
 39 27  2  0
 40 41  1  0
 41 38  2  0
  8  7  1  0
 34 39  1  0
 40 35  2  0
  3 17  1  0
 24 30  2  0
M  CHG  2  19  -1  32   1
M  END
>  <ID>  (876) 


>  <MOLENAME>  (876) 
MONTELUKAST SODIUM

>  <therap>  (876) 
leucotriene antagonist, antiasthmatic

>  <ref>  (876) 
Can. J. Physiol. Pharmacol. (1995), 73(2), 191-201; Biorg. Med. Chem. Lett. (1995), 5(3), 283-8; Drugs Future (1997), 22(10), 1103-1111

>  <cas#>  (876) 
151767-02-1

>  <source>  (876) 
synthetic; MK-476

>  <status>  (876) 
USAN, INN, BAN

>  <tradename>  (876) 
SINGULAIR

>  <SMILES>  (876) 
CC(C)(O)c1c(CC[C@@H](SC2(CC(=O)O)CC2)c2cc(/C=C/c3nc4cc(Cl)ccc4cc3)ccc2)cccc1

>  <standardized_failed>  (876) 
False

$$$$

     RDKit          2D

 15 15  0  0  0  0  0  0  0  0999 V2000
    3.9417   -2.3000    0.0000 C   0  0  0  0  0  0  0  0  0  0  0  0
    6.0792   -2.7042    0.0000 C   0  0  0  0  0  0  0  0  0  0  0  0
    4.6542   -2.7042    0.0000 N   0  0  0  0  0  0  0  0  0  0  0  0
    3.2292   -2.7125    0.0000 C   0  0  0  0  0  0  0  0  0  0  0  0
    3.9417   -1.4750    0.0000 O   0  0  0  0  0  0  0  0  0  0  0  0
    6.0792   -3.5292    0.0000 O   0  0  0  0  0  0  0  0  0  0  0  0
    5.3667   -2.2917    0.0000 C   0  0  0  0  0  0  0  0  0  0  0  0
    6.7917   -2.2917    0.0000 N   0  0  0  0  0  0  0  0  0  0  0  0
    2.5167   -2.3000    0.0000 C   0  0  0  0  0  0  0  0  0  0  0  0
    3.2292   -3.5417    0.0000 C   0  0  0  0  0  0  0  0  0  0  0  0
    1.8042   -3.5417    0.0000 C   0  0  0  0  0  0  0  0  0  0  0  0
    1.8042   -2.7125    0.0000 C   0  0  0  0  0  0  0  0  0  0  0  0
    2.5167   -3.9542    0.0000 C   0  0  0  0  0  0  0  0  0  0  0  0
    1.0875   -3.9542    0.0000 Cl  0  0  0  0  0  0  0  0  0  0  0  0
    7.5042   -2.7000    0.0000 O   0  0  0  0  0  0  0  0  0  0  0  0
  2  7  1  0
  3  1  1  0
  4  1  1  0
  5  1  2  0
  6  2  2  0
  7  3  1  0
  8  2  1  0
  9  4  2  0
 10  4  1  0
 11 13  1  0
 12  9  1  0
 13 10  2  0
 14 11  1  0
 15  8  1  0
 11 12  2  0
M  END
>  <ID>  (877) 


>  <MOLENAME>  (877) 
BENURESTAT

>  <therap>  (877) 
urease inhibitor

>  <ref>  (877) 
Invest Urol 12:381 (1975); 18:102 (1980)

>  <cas#>  (877) 
38274-54-3

>  <source>  (877) 
synthetic; EU-2826

>  <status>  (877) 
USAN, INN

>  <tradename>  (877) 
nan

>  <SMILES>  (877) 
O=C(CNC(=O)c1ccc(Cl)cc1)NO

>  <standardized_failed>  (877) 
False

$$$$

     RDKit          2D

 19 21  0  0  0  0  0  0  0  0999 V2000
    3.3542   -3.0292    0.0000 C   0  0  0  0  0  0  0  0  0  0  0  0
    4.0667   -3.4417    0.0000 O   0  0  0  0  0  0  0  0  0  0  0  0
    4.0750   -4.2667    0.0000 C   0  0  0  0  0  0  0  0  0  0  0  0
    4.7917   -4.6792    0.0000 C   0  0  0  0  0  0  0  0  0  0  0  0
    5.5000   -4.2542    0.0000 N   0  0  0  0  0  0  0  0  0  0  0  0
    3.3542   -2.2042    0.0000 O   0  0  0  0  0  0  0  0  0  0  0  0
    2.6417   -3.4417    0.0000 C   0  0  0  0  0  0  0  0  0  0  0  0
    4.7917   -5.5042    0.0000 C   0  0  0  0  0  0  0  0  0  0  0  0
    3.3625   -4.6792    0.0000 C   0  0  0  0  0  0  0  0  0  0  0  0
    3.3625   -5.5042    0.0000 C   0  0  0  0  0  0  0  0  0  0  0  0
    6.2167   -4.6667    0.0000 C   0  0  0  0  0  0  0  0  0  0  0  0
    4.0750   -5.9167    0.0000 C   0  0  0  0  0  0  0  0  0  0  0  0
    1.9292   -3.0375    0.0000 C   0  0  0  0  0  0  0  0  0  0  0  0
    2.6500   -4.2667    0.0000 C   0  0  0  0  0  0  0  0  0  0  0  0
    5.5042   -5.9167    0.0000 C   0  0  0  0  0  0  0  0  0  0  0  0
    6.2167   -5.5000    0.0000 C   0  0  0  0  0  0  0  0  0  0  0  0
    1.9417   -4.6875    0.0000 C   0  0  0  0  0  0  0  0  0  0  0  0
    1.2167   -3.4500    0.0000 C   0  0  0  0  0  0  0  0  0  0  0  0
    1.2167   -4.2750    0.0000 C   0  0  0  0  0  0  0  0  0  0  0  0
  2  1  1  0
  3  2  1  0
  4  3  1  0
  5  4  2  0
  6  1  2  0
  7  1  1  0
  8  4  1  0
  9  3  2  0
 10  9  1  0
 11  5  1  0
 12 10  2  0
 13  7  2  0
 14  7  1  0
 15  8  2  0
 16 15  1  0
 17 14  2  0
 18 13  1  0
 19 17  1  0
 19 18  2  0
 12  8  1  0
 11 16  2  0
M  END
>  <ID>  (878) 


>  <MOLENAME>  (878) 
BENZOXIQUINE

>  <therap>  (878) 
antiinfective

>  <ref>  (878) 
Int J Toxicol 16:117 (1997)

>  <cas#>  (878) 
86-75-9

>  <source>  (878) 
synthetic; NSC-3951

>  <status>  (878) 
USAN, INN

>  <tradename>  (878) 
DIOXYLINE

>  <SMILES>  (878) 
O=C(Oc1cccc2cccnc12)c1ccccc1

>  <standardized_failed>  (878) 
False

$$$$

     RDKit          2D

 12 13  0  0  0  0  0  0  0  0999 V2000
    2.3542   -5.0000    0.0000 Bi  0  0  0  0  0  3  0  0  0  0  0  0
    2.3542   -4.1750    0.0000 O   0  0  0  0  0  0  0  0  0  0  0  0
    1.6417   -3.7667    0.0000 C   0  0  0  0  0  0  0  0  0  0  0  0
    0.9292   -4.1792    0.0000 C   0  0  0  0  0  0  0  0  0  0  0  0
    1.6417   -5.4250    0.0000 O   0  0  0  0  0  0  0  0  0  0  0  0
    0.9292   -5.0125    0.0000 C   0  0  0  0  0  0  0  0  0  0  0  0
    1.6375   -2.9417    0.0000 O   0  0  0  0  0  0  0  0  0  0  0  0
    3.0667   -5.4042    0.0000 O   0  0  0  0  0  0  0  0  0  0  0  0
    0.2125   -3.7667    0.0000 C   0  0  0  0  0  0  0  0  0  0  0  0
    0.2125   -5.4250    0.0000 C   0  0  0  0  0  0  0  0  0  0  0  0
   -0.5000   -4.1875    0.0000 C   0  0  0  0  0  0  0  0  0  0  0  0
   -0.5000   -5.0125    0.0000 C   0  0  0  0  0  0  0  0  0  0  0  0
  2  1  1  0
  3  2  1  0
  4  6  2  0
  5  1  1  0
  6  5  1  0
  7  3  2  0
  8  1  1  0
  9  4  1  0
 10  6  1  0
 11 12  1  0
 12 10  2  0
  3  4  1  0
 11  9  2  0
M  END
>  <ID>  (879) 


>  <MOLENAME>  (879) 
BISMUTH SUBSALICYLATE

>  <therap>  (879) 
antidiarrheal, antacid, antiulcer

>  <ref>  (879) 
Rev Infect Dis 12 Suppl 1:1 (1990); N Engl J Med 328:1653 (1993); Dig Dis Sci 44:2419 (1999)

>  <cas#>  (879) 
14882-18-9

>  <source>  (879) 
synthetic

>  <status>  (879) 
USP, JAN

>  <tradename>  (879) 
PEPTO-BISMOL

>  <SMILES>  (879) 
O=C1O[Bi](O)Oc2ccccc21

>  <standardized_failed>  (879) 
True

$$$$

     RDKit          2D

 19 20  0  0  0  0  0  0  0  0999 V2000
    5.3292   -1.4292    0.0000 C   0  0  0  0  0  0  0  0  0  0  0  0
    2.4750   -2.2625    0.0000 C   0  0  0  0  0  0  0  0  0  0  0  0
    5.3292   -2.2625    0.0000 C   0  0  0  0  0  0  0  0  0  0  0  0
    6.0417   -1.0167    0.0000 C   0  0  0  0  0  0  0  0  0  0  0  0
    3.1875   -2.6750    0.0000 N   0  0  0  0  0  0  0  0  0  0  0  0
    4.6167   -2.6750    0.0000 C   0  0  0  0  0  0  0  0  0  0  0  0
    4.6167   -1.0167    0.0000 C   0  0  0  0  0  0  0  0  0  0  0  0
    3.9042   -2.2625    0.0000 C   0  0  0  0  0  0  0  0  0  0  0  0
    2.4750   -1.4375    0.0000 O   0  0  0  0  0  0  0  0  0  0  0  0
    1.7542   -2.6750    0.0000 C   0  0  0  0  0  0  0  0  0  0  0  0
    6.0417   -0.1917    0.0000 O   0  0  0  0  0  0  0  0  0  0  0  0
    3.9042   -1.4375    0.0000 C   0  0  0  0  0  0  0  0  0  0  0  0
    6.0500   -2.6750    0.0000 O   0  0  0  0  0  0  0  0  0  0  0  0
    6.7625   -1.4250    0.0000 O   0  0  0  0  0  0  0  0  0  0  0  0
    1.0417   -2.2542    0.0000 C   0  0  0  0  0  0  0  0  0  0  0  0
    1.7625   -3.4917    0.0000 C   0  0  0  0  0  0  0  0  0  0  0  0
    1.0500   -3.9042    0.0000 C   0  0  0  0  0  0  0  0  0  0  0  0
    0.3292   -2.6667    0.0000 C   0  0  0  0  0  0  0  0  0  0  0  0
    0.3292   -3.4917    0.0000 C   0  0  0  0  0  0  0  0  0  0  0  0
  2  5  1  0
  3  1  2  0
  4  1  1  0
  5  8  1  0
  6  3  1  0
  7  1  1  0
  8 12  1  0
  9  2  2  0
 10  2  1  0
 11  4  2  0
 12  7  2  0
 13  3  1  0
 14  4  1  0
 15 10  2  0
 16 10  1  0
 17 16  2  0
 18 15  1  0
 19 17  1  0
  6  8  2  0
 19 18  2  0
M  END
>  <ID>  (880) 


>  <MOLENAME>  (880) 
BENZOYLPAS

>  <therap>  (880) 
antibacterial, tuberculostatic

>  <ref>  (880) 
J Chem Soc 1949:1498

>  <cas#>  (880) 
13898-58-3

>  <source>  (880) 
synthetic

>  <status>  (880) 
USP-XX

>  <tradename>  (880) 
THERAPAS

>  <SMILES>  (880) 
O=C(Nc1cc(O)c(C(=O)O)cc1)c1ccccc1

>  <standardized_failed>  (880) 
False

$$$$

     RDKit          2D

 18 20  0  0  0  0  0  0  0  0999 V2000
    4.7750   -5.0667    0.0000 C   0  0  0  0  0  0  0  0  0  0  0  0
    4.7667   -3.7292    0.0000 C   0  0  0  0  0  0  0  0  0  0  0  0
    5.2542   -4.3917    0.0000 C   0  0  0  0  0  0  0  0  0  0  0  0
    3.9875   -4.8167    0.0000 C   0  0  0  0  0  0  0  0  0  0  0  0
    3.9792   -3.9917    0.0000 C   0  0  0  0  0  0  0  0  0  0  0  0
    6.0792   -4.3917    0.0000 C   0  0  0  0  0  0  0  0  0  0  0  0
    5.0167   -2.9417    0.0000 O   0  0  0  0  0  0  0  0  0  0  0  0
    5.0292   -5.8500    0.0000 O   0  0  0  0  0  0  0  0  0  0  0  0
    6.4917   -5.1042    0.0000 C   0  0  0  0  0  0  0  0  0  0  0  0
    6.4792   -3.6750    0.0000 C   0  0  0  0  0  0  0  0  0  0  0  0
    7.7292   -4.3792    0.0000 C   0  0  0  0  0  0  0  0  0  0  0  0
    7.3042   -3.6667    0.0000 C   0  0  0  0  0  0  0  0  0  0  0  0
    7.3167   -5.1000    0.0000 C   0  0  0  0  0  0  0  0  0  0  0  0
    8.5542   -4.3750    0.0000 Br  0  0  0  0  0  0  0  0  0  0  0  0
    3.2667   -5.2292    0.0000 C   0  0  0  0  0  0  0  0  0  0  0  0
    3.2667   -3.5792    0.0000 C   0  0  0  0  0  0  0  0  0  0  0  0
    2.5542   -3.9917    0.0000 C   0  0  0  0  0  0  0  0  0  0  0  0
    2.5542   -4.8167    0.0000 C   0  0  0  0  0  0  0  0  0  0  0  0
  2  3  1  0
  3  1  1  0
  4  1  1  0
  5  4  2  0
  6  3  1  0
  7  2  2  0
  8  1  2  0
  9  6  2  0
 10  6  1  0
 11 12  1  0
 12 10  2  0
 13  9  1  0
 14 11  1  0
 15  4  1  0
 16  5  1  0
 17 18  1  0
 18 15  2  0
  5  2  1  0
 17 16  2  0
 11 13  2  0
M  END
>  <ID>  (881) 


>  <MOLENAME>  (881) 
BROMINDIONE

>  <therap>  (881) 
anticoagulant

>  <ref>  (881) 
Farmaco Ed Sci 10:710 (1955)

>  <cas#>  (881) 
1146-98-1

>  <source>  (881) 
synthetic

>  <status>  (881) 
USAN, INN, BAN

>  <tradename>  (881) 
HALINONE

>  <SMILES>  (881) 
O=C1c2c(cccc2)C(=O)C1c1ccc(Br)cc1

>  <standardized_failed>  (881) 
False

$$$$

     RDKit          2D

 23 23  0  0  0  0  0  0  0  0999 V2000
    1.0875   -1.1542    0.0000 C   0  0  0  0  0  0  0  0  0  0  0  0
    2.7292   -1.1542    0.0000 C   0  0  0  0  0  0  0  0  0  0  0  0
    1.4917   -0.4417    0.0000 C   0  0  0  0  0  0  0  0  0  0  0  0
    1.4917   -1.8667    0.0000 C   0  0  0  0  0  0  0  0  0  0  0  0
    3.5542   -1.1542    0.0000 C   0  0  0  0  0  0  0  0  0  0  0  0
    2.3167   -0.4417    0.0000 C   0  0  0  0  0  0  0  0  0  0  0  0
    2.3167   -1.8667    0.0000 C   0  0  0  0  0  0  0  0  0  0  0  0
    7.6792   -4.0167    0.0000 C   0  0  0  0  0  0  0  0  0  0  0  0
    3.9667   -0.4417    0.0000 O   0  0  0  0  0  0  0  0  0  0  0  0
    7.2667   -4.7292    0.0000 O   0  0  0  0  0  0  0  0  0  0  0  0
    3.9667   -1.8667    0.0000 N   0  0  0  0  0  0  0  0  0  0  0  0
    0.2625   -1.1542    0.0000 O   0  0  0  0  0  0  0  0  0  0  0  0
    1.0875   -2.5792    0.0000 O   0  0  0  0  0  0  0  0  0  0  0  0
    1.0792    0.2708    0.0000 O   0  0  0  0  0  0  0  0  0  0  0  0
    8.5042   -4.0167    0.0000 O   0  0  0  0  0  0  0  0  0  0  0  0
    7.2667   -3.3000    0.0000 C   0  0  0  0  0  0  0  0  0  0  0  0
    4.7917   -1.8667    0.0000 C   0  0  0  0  0  0  0  0  0  0  0  0
   -0.1583   -0.4417    0.0000 C   0  0  0  0  0  0  0  0  0  0  0  0
    1.4875    0.9833    0.0000 C   0  0  0  0  0  0  0  0  0  0  0  0
    0.2625   -2.5792    0.0000 C   0  0  0  0  0  0  0  0  0  0  0  0
    6.4417   -3.3000    0.0000 C   0  0  0  0  0  0  0  0  0  0  0  0
    5.2042   -2.5875    0.0000 C   0  0  0  0  0  0  0  0  0  0  0  0
    6.0292   -2.5875    0.0000 C   0  0  0  0  0  0  0  0  0  0  0  0
  2  7  1  0
  3  1  2  0
  4  1  1  0
  5  2  1  0
  6  3  1  0
  7  4  2  0
  8 16  1  0
  9  5  2  0
 10  8  2  0
 11  5  1  0
 12  1  1  0
 13  4  1  0
 14  3  1  0
 15  8  1  0
 16 21  1  0
 17 11  1  0
 18 12  1  0
 19 14  1  0
 20 13  1  0
 21 23  1  0
 22 17  1  0
 23 22  1  0
  6  2  2  0
M  END
>  <ID>  (882) 


>  <MOLENAME>  (882) 
CAPOBENIC ACID

>  <therap>  (882) 
antiarrhythmic

>  <ref>  (882) 
Riv. Farmacol. Ter. (1982), 13(2), 111-22; Biochem. Pharmacol. (1976), 25(19), 2203-7; Atherosclerosis (1971), 14(3), 375-8

>  <cas#>  (882) 
21434-91-3

>  <source>  (882) 
synthetic; C-3

>  <status>  (882) 
USAN, INN

>  <tradename>  (882) 
nan

>  <SMILES>  (882) 
COc1c(OC)c(OC)cc(C(=O)NCCCCCC(=O)O)c1

>  <standardized_failed>  (882) 
False

$$$$

     RDKit          2D

 22 23  0  0  0  0  0  0  0  0999 V2000
    7.8167   -6.2167    0.0000 S   0  0  0  0  0  0  0  0  0  0  0  0
    8.5292   -5.8042    0.0000 N   0  0  0  0  0  0  0  0  0  0  0  0
    9.2417   -6.2125    0.0000 C   0  0  0  0  0  0  0  0  0  0  0  0
    7.1000   -5.8042    0.0000 C   0  0  0  0  0  0  0  0  0  0  0  0
    8.4000   -6.8000    0.0000 O   0  0  0  0  0  0  0  0  0  0  0  0
    7.2292   -6.8000    0.0000 O   0  0  0  0  0  0  0  0  0  0  0  0
    9.9542   -5.8000    0.0000 N   0  0  0  0  0  0  0  0  0  0  0  0
    5.6792   -4.9917    0.0000 C   0  0  0  0  0  0  0  0  0  0  0  0
    4.9625   -4.5792    0.0000 C   0  0  0  0  0  0  0  0  0  0  0  0
    9.2417   -7.0375    0.0000 O   0  0  0  0  0  0  0  0  0  0  0  0
    6.3917   -6.2167    0.0000 C   0  0  0  0  0  0  0  0  0  0  0  0
    7.1042   -4.9917    0.0000 C   0  0  0  0  0  0  0  0  0  0  0  0
    4.9542   -3.7542    0.0000 O   0  0  0  0  0  0  0  0  0  0  0  0
    6.3917   -4.5792    0.0000 C   0  0  0  0  0  0  0  0  0  0  0  0
    5.6792   -5.8125    0.0000 C   0  0  0  0  0  0  0  0  0  0  0  0
   10.6667   -6.2125    0.0000 C   0  0  0  0  0  0  0  0  0  0  0  0
    4.2500   -4.9917    0.0000 C   0  0  0  0  0  0  0  0  0  0  0  0
   10.6667   -7.0375    0.0000 C   0  0  0  0  0  0  0  0  0  0  0  0
   11.3792   -5.7917    0.0000 C   0  0  0  0  0  0  0  0  0  0  0  0
   12.0917   -6.2042    0.0000 C   0  0  0  0  0  0  0  0  0  0  0  0
   11.3792   -7.4500    0.0000 C   0  0  0  0  0  0  0  0  0  0  0  0
   12.0917   -7.0375    0.0000 C   0  0  0  0  0  0  0  0  0  0  0  0
  2  1  1  0
  3  2  1  0
  4  1  1  0
  5  1  2  0
  6  1  2  0
  7  3  1  0
  8 14  2  0
  9  8  1  0
 10  3  2  0
 11  4  1  0
 12  4  2  0
 13  9  2  0
 14 12  1  0
 15 11  2  0
 16  7  1  0
 17  9  1  0
 18 16  1  0
 19 16  1  0
 20 19  1  0
 21 18  1  0
 22 20  1  0
 15  8  1  0
 22 21  1  0
M  END
>  <ID>  (883) 


>  <MOLENAME>  (883) 
ACETOHEXAMIDE

>  <therap>  (883) 
antidiabetic

>  <ref>  (883) 
J Med Chem 6:60 (1963); Anal Profiles Drug Subs 1:1 (1972)

>  <cas#>  (883) 
968-81-0

>  <source>  (883) 
synthetic; 33006

>  <status>  (883) 
USP, INN, BAN, JAN

>  <tradename>  (883) 
DYMELOR

>  <SMILES>  (883) 
CC(=O)c1ccc(S(=O)(=O)NC(=O)NC2CCCCC2)cc1

>  <standardized_failed>  (883) 
False

$$$$

     RDKit          2D

 16 17  0  0  0  0  0  0  0  0999 V2000
    5.8792   -2.4625    0.0000 C   0  0  0  0  0  0  0  0  0  0  0  0
    6.7042   -2.4542    0.0000 S   0  0  0  0  0  0  0  0  0  0  0  0
    5.4000   -3.1292    0.0000 N   0  0  0  0  0  0  0  0  0  0  0  0
    5.3917   -1.7917    0.0000 S   0  0  0  0  0  0  0  0  0  0  0  0
    4.6042   -2.0542    0.0000 C   0  0  0  0  0  0  0  0  0  0  0  0
    4.6125   -2.8792    0.0000 C   0  0  0  0  0  0  0  0  0  0  0  0
    3.8917   -1.6417    0.0000 C   0  0  0  0  0  0  0  0  0  0  0  0
    7.1250   -3.1667    0.0000 O   0  0  0  0  0  0  0  0  0  0  0  0
    7.1167   -1.7417    0.0000 O   0  0  0  0  0  0  0  0  0  0  0  0
    7.5292   -2.4542    0.0000 N   0  0  0  0  0  0  0  0  0  0  0  0
    3.8917   -3.3000    0.0000 C   0  0  0  0  0  0  0  0  0  0  0  0
    3.1792   -2.0625    0.0000 C   0  0  0  0  0  0  0  0  0  0  0  0
    3.1792   -2.8875    0.0000 C   0  0  0  0  0  0  0  0  0  0  0  0
    2.4667   -1.6500    0.0000 O   0  0  0  0  0  0  0  0  0  0  0  0
    2.4667   -0.8250    0.0000 C   0  0  0  0  0  0  0  0  0  0  0  0
    1.7500   -0.4125    0.0000 C   0  0  0  0  0  0  0  0  0  0  0  0
  2  1  1  0
  3  1  2  0
  4  1  1  0
  5  4  1  0
  6  3  1  0
  7  5  2  0
  8  2  2  0
  9  2  2  0
 10  2  1  0
 11  6  2  0
 12  7  1  0
 13 11  1  0
 14 12  1  0
 15 14  1  0
 16 15  1  0
  6  5  1  0
 13 12  2  0
M  END
>  <ID>  (884) 


>  <MOLENAME>  (884) 
ETHOXZOLAMIDE

>  <therap>  (884) 
carbonic anhydrase inhibitor, antiulcer, antiglaucoma

>  <ref>  (884) 
Drugs Today (1978), 14(5), 205-9; J. Ocul. Pharmacol. (1990), 6(4), 271-8; J. Med. Chem. (1984), 27(6), 810-2

>  <cas#>  (884) 
452-35-7

>  <source>  (884) 
synthetic

>  <status>  (884) 
USP-XX

>  <tradename>  (884) 
ETHAMIDE

>  <SMILES>  (884) 
CCOc1ccc2nc(S(N)(=O)=O)sc2c1

>  <standardized_failed>  (884) 
False

$$$$

     RDKit          2D

  9  9  0  0  0  0  0  0  0  0999 V2000
    4.7625   -2.5125    0.0000 N   0  0  0  0  0  0  0  0  0  0  0  0
    4.0458   -2.9250    0.0000 C   0  0  0  0  0  0  0  0  0  0  0  0
    3.3333   -2.5125    0.0000 C   0  0  0  0  0  0  0  0  0  0  0  0
    4.7625   -1.6833    0.0000 C   0  0  0  0  0  0  0  0  0  0  0  0
    4.0458   -1.2708    0.0000 N   0  0  0  0  0  0  0  0  0  0  0  0
    3.3333   -1.6875    0.0000 C   0  0  0  0  0  0  0  0  0  0  0  0
    5.4750   -1.2667    0.0000 O   0  0  0  0  0  0  0  0  0  0  0  0
    4.0458   -3.7500    0.0000 N   0  0  0  0  0  0  0  0  0  0  0  0
    2.6167   -2.9250    0.0000 F   0  0  0  0  0  0  0  0  0  0  0  0
  2  1  2  0
  3  2  1  0
  4  1  1  0
  5  4  1  0
  6  3  2  0
  7  4  2  0
  8  2  1  0
  9  3  1  0
  6  5  1  0
M  END
>  <ID>  (885) 


>  <MOLENAME>  (885) 
FLUCYTOSINE

>  <therap>  (885) 
antifungal

>  <ref>  (885) 
Minerva Med. (2004), 90, 451-457; Pharmacol. Rev. (1981), 33(1), 1-15; Ann. Intern. Med. (1977), 86(3), 319-21

>  <cas#>  (885) 
2022-85-7

>  <source>  (885) 
synthetic; RO-2-9915

>  <status>  (885) 
USP, INN, BAN, JAN

>  <tradename>  (885) 
ANCOBON

>  <SMILES>  (885) 
Nc1nc(=O)[nH]cc1F

>  <standardized_failed>  (885) 
False

$$$$

     RDKit          2D

  7  6  0  0  0  0  0  0  0  0999 V2000
    6.9167   -2.6917    0.0000 N   0  0  0  0  0  0  0  0  0  0  0  0
    7.1792   -1.9042    0.0000 N   0  0  0  0  0  0  0  0  0  0  0  0
    5.8417   -1.9042    0.0000 C   0  0  0  0  0  0  0  0  0  0  0  0
    6.5042   -1.4167    0.0000 C   0  0  0  0  0  0  0  0  0  0  0  0
    6.0917   -2.6917    0.0000 C   0  0  0  0  0  0  0  0  0  0  0  0
    8.7125   -2.0292    0.0000 Cl  0  0  0  0  0  0  0  0  0  0  0  0
    5.0542   -1.6500    0.0000 C   0  0  0  0  0  0  0  0  0  0  0  0
  2  1  1  0
  3  5  1  0
  4  2  1  0
  5  1  2  0
  7  3  1  0
  3  4  2  0
M  END
>  <ID>  (886) 


>  <MOLENAME>  (886) 
FOMEPIZOLE HYDROCHLORIDE

>  <therap>  (886) 
alcohol dehydrogenase inhibitor, antidote

>  <ref>  (886) 
Clin. Toxicol. (2010), 48(5), 401-406; N. Engl. J. Med. (2009), 360(21), 2216-23; Med. Toxicol. (1986), 1(5), 309-34

>  <cas#>  (886) 
56010-88-8

>  <source>  (886) 
synthetic; 4-MP

>  <status>  (886) 
USAN, INN, BAN

>  <tradename>  (886) 
ANTIZOL

>  <SMILES>  (886) 
Cc1c[nH]nc1

>  <standardized_failed>  (886) 
False

$$$$

     RDKit          2D

 31 33  0  0  0  0  0  0  0  0999 V2000
    7.1042   -0.2375    0.0000 S   0  0  0  0  0  0  0  0  0  0  0  0
    7.8167   -0.6500    0.0000 N   0  0  0  0  0  0  0  0  0  0  0  0
    8.5292   -0.2375    0.0000 C   0  0  0  0  0  0  0  0  0  0  0  0
    1.4167   -1.9000    0.0000 C   0  0  0  0  0  0  0  0  0  0  0  0
    0.7042   -1.4875    0.0000 N   0  0  0  0  0  0  0  0  0  0  0  0
    2.1292   -1.4875    0.0000 C   0  0  0  0  0  0  0  0  0  0  0  0
    6.3917   -0.6500    0.0000 C   0  0  0  0  0  0  0  0  0  0  0  0
    6.5167    0.3500    0.0000 O   0  0  0  0  0  0  0  0  0  0  0  0
    7.6917    0.3500    0.0000 O   0  0  0  0  0  0  0  0  0  0  0  0
    0.7042   -3.1417    0.0000 N   0  0  0  0  0  0  0  0  0  0  0  0
    9.2417   -0.6500    0.0000 N   0  0  0  0  0  0  0  0  0  0  0  0
    1.4167   -2.7292    0.0000 C   0  0  0  0  0  0  0  0  0  0  0  0
    8.5292    0.5875    0.0000 O   0  0  0  0  0  0  0  0  0  0  0  0
    2.1292   -0.6625    0.0000 O   0  0  0  0  0  0  0  0  0  0  0  0
    2.8417   -1.8917    0.0000 N   0  0  0  0  0  0  0  0  0  0  0  0
    6.4000   -1.4667    0.0000 C   0  0  0  0  0  0  0  0  0  0  0  0
    5.6792   -0.2417    0.0000 C   0  0  0  0  0  0  0  0  0  0  0  0
   -0.0083   -1.9000    0.0000 C   0  0  0  0  0  0  0  0  0  0  0  0
   -0.0083   -2.7292    0.0000 C   0  0  0  0  0  0  0  0  0  0  0  0
    5.6917   -1.8875    0.0000 C   0  0  0  0  0  0  0  0  0  0  0  0
    4.9750   -0.6625    0.0000 C   0  0  0  0  0  0  0  0  0  0  0  0
    4.9792   -1.4792    0.0000 C   0  0  0  0  0  0  0  0  0  0  0  0
    9.9542   -0.2375    0.0000 C   0  0  0  0  0  0  0  0  0  0  0  0
    3.5542   -1.4792    0.0000 C   0  0  0  0  0  0  0  0  0  0  0  0
    4.2667   -1.8917    0.0000 C   0  0  0  0  0  0  0  0  0  0  0  0
   -0.7250   -3.1417    0.0000 C   0  0  0  0  0  0  0  0  0  0  0  0
    9.9542    0.5875    0.0000 C   0  0  0  0  0  0  0  0  0  0  0  0
   10.6667   -0.6500    0.0000 C   0  0  0  0  0  0  0  0  0  0  0  0
   11.3792   -0.2375    0.0000 C   0  0  0  0  0  0  0  0  0  0  0  0
   10.6667    0.9958    0.0000 C   0  0  0  0  0  0  0  0  0  0  0  0
   11.3792    0.5833    0.0000 C   0  0  0  0  0  0  0  0  0  0  0  0
  2  1  1  0
  3  2  1  0
  4  6  1  0
  5  4  2  0
  6 15  1  0
  7  1  1  0
  8  1  2  0
  9  1  2  0
 10 12  2  0
 11  3  1  0
 12  4  1  0
 13  3  2  0
 14  6  2  0
 15 24  1  0
 16  7  2  0
 17  7  1  0
 18  5  1  0
 19 10  1  0
 20 16  1  0
 21 17  2  0
 22 21  1  0
 23 11  1  0
 24 25  1  0
 25 22  1  0
 26 19  1  0
 27 23  1  0
 28 23  1  0
 29 28  1  0
 30 27  1  0
 31 29  1  0
 20 22  2  0
 31 30  1  0
 19 18  2  0
M  END
>  <ID>  (887) 


>  <MOLENAME>  (887) 
GLIPIZIDE

>  <therap>  (887) 
antidiabetic

>  <ref>  (887) 
Arzneim Forsch 21:206 (1971); Drugs 18:329 (1979); Pharmacotherapy 5:63 (1985)

>  <cas#>  (887) 
29094-61-9

>  <source>  (887) 
synthetic; CP-28720, K-4024

>  <status>  (887) 
USP, INN, BAN

>  <tradename>  (887) 
GLUCOTROL

>  <SMILES>  (887) 
Cc1cnc(C(=O)NCCc2ccc(S(=O)(=O)NC(=O)NC3CCCCC3)cc2)cn1

>  <standardized_failed>  (887) 
False

$$$$

     RDKit          2D

 16 15  0  0  0  0  0  0  0  0999 V2000
    3.9167   -2.9667    0.0000 N   0  0  0  0  0  0  0  0  0  0  0  0
    1.8708   -3.6833    0.0000 C   0  0  0  0  0  0  0  0  0  0  0  0
    4.3292   -2.2542    0.0000 C   0  0  0  0  0  0  0  0  0  0  0  0
    3.1000   -2.9667    0.0000 C   0  0  0  0  0  0  0  0  0  0  0  0
    2.6917   -3.6792    0.0000 C   0  0  0  0  0  0  0  0  0  0  0  0
    1.4583   -4.3958    0.0000 C   0  0  0  0  0  0  0  0  0  0  0  0
    1.4583   -2.9708    0.0000 C   0  0  0  0  0  0  0  0  0  0  0  0
    2.6833   -2.2542    0.0000 O   0  0  0  0  0  0  0  0  0  0  0  0
    5.1500   -2.2542    0.0000 N   0  0  0  0  0  0  0  0  0  0  0  0
    3.9125   -1.5417    0.0000 N   0  0  0  0  0  0  0  0  0  0  0  0
    1.8708   -2.2583    0.0000 Cl  0  0  0  0  0  0  0  0  0  0  0  0
    1.8708   -5.1125    0.0000 Cl  0  0  0  0  0  0  0  0  0  0  0  0
    5.6125   -3.7417    0.0000 Cl  0  0  0  0  0  0  0  0  0  0  0  0
    0.2250   -3.6875    0.0000 C   0  0  0  0  0  0  0  0  0  0  0  0
    0.6333   -2.9750    0.0000 C   0  0  0  0  0  0  0  0  0  0  0  0
    0.6333   -4.3958    0.0000 C   0  0  0  0  0  0  0  0  0  0  0  0
  2  5  1  0
  3  1  2  0
  4  1  1  0
  5  4  1  0
  6  2  2  0
  7  2  1  0
  8  4  2  0
  9  3  1  0
 10  3  1  0
 11  7  1  0
 12  6  1  0
 14 16  2  0
 15  7  2  0
 16  6  1  0
 14 15  1  0
M  END
>  <ID>  (888) 


>  <MOLENAME>  (888) 
GUANFACINE HYDROCHLORIDE

>  <therap>  (888) 
antihypertensive

>  <ref>  (888) 
Br J Clin Pharmacol 10 Suppl 1:1S (1980); Am J Cardiol 57:1E (1986)

>  <cas#>  (888) 
29110-47-2

>  <source>  (888) 
synthetic; BS-100-141

>  <status>  (888) 
USP, INN, BAN, JAN

>  <tradename>  (888) 
TENEX

>  <SMILES>  (888) 
NC(N)=NC(=O)Cc1c(Cl)cccc1Cl

>  <standardized_failed>  (888) 
False

$$$$

     RDKit          2D

 24 23  0  0  0  0  0  0  0  0999 V2000
    4.3667   -1.9917    0.0000 C   0  0  0  0  0  0  0  0  0  0  0  0
    4.3667   -2.8167    0.0000 C   0  0  0  0  0  0  0  0  0  0  0  0
    3.6417   -3.2375    0.0000 C   0  0  0  0  0  0  0  0  0  0  0  0
    3.6417   -1.5792    0.0000 O   0  0  0  0  0  0  0  0  0  0  0  0
    5.0792   -0.7542    0.0000 C   0  0  0  0  0  0  0  0  0  0  0  0
    5.0792   -1.5792    0.0000 O   0  0  0  0  0  0  0  0  0  0  0  0
    2.9292   -2.8167    0.0000 C   0  0  0  0  0  0  0  0  0  0  0  0
    2.9292   -1.9917    0.0000 C   0  0  0  0  0  0  0  0  0  0  0  0
    4.3667   -0.3417    0.0000 C   0  0  0  0  0  0  0  0  0  0  0  0
    5.7917   -0.3417    0.0000 C   0  0  0  0  0  0  0  0  0  0  0  0
    4.3625    0.4833    0.0000 C   0  0  0  0  0  0  0  0  0  0  0  0
    5.0792   -3.2375    0.0000 O   0  0  0  0  0  0  0  0  0  0  0  0
    3.6500   -4.0667    0.0000 O   0  0  0  0  0  0  0  0  0  0  0  0
    2.2167   -3.2375    0.0000 O   0  0  0  0  0  0  0  0  0  0  0  0
    3.6542   -0.7542    0.0000 O   0  0  0  0  0  0  0  0  0  0  0  0
    5.7875    0.4833    0.0000 O   0  0  0  0  0  0  0  0  0  0  0  0
    5.0750    0.8958    0.0000 O   0  0  0  0  0  0  0  0  0  0  0  0
    2.2167   -1.5792    0.0000 C   0  0  0  0  0  0  0  0  0  0  0  0
    1.5875   -2.1167    0.0000 O   0  0  0  0  0  0  0  0  0  0  0  0
    7.2167   -0.3292    0.0000 O   0  0  0  0  0  0  0  0  0  0  0  0
    3.6417    1.7208    0.0000 O   0  0  0  0  0  0  0  0  0  0  0  0
    6.5042   -0.7500    0.0000 C   0  0  0  0  0  0  0  0  0  0  0  0
    3.6417    0.8958    0.0000 C   0  0  0  0  0  0  0  0  0  0  0  0
    6.4917   -1.9292    0.0000 O   0  0  0  0  0  0  0  0  0  0  0  0
  2  1  1  0
  3  2  1  0
  4  1  1  0
  6  5  1  0
  1  6  1  1
  7  8  1  0
  8  4  1  0
  9  5  1  0
 10  5  1  0
 11  9  1  0
  2 12  1  6
  3 13  1  1
  7 14  1  1
  9 15  1  6
 10 16  1  6
 11 17  1  6
  8 18  1  1
 19 18  1  0
 20 22  1  0
 21 23  1  0
 22 10  1  0
 23 11  1  0
  7  3  1  0
M  END
>  <ID>  (889) 


>  <MOLENAME>  (889) 
D-LACTITOL MONOHYDRATE

>  <therap>  (889) 
sweetener, treatment of portoencephalopathy

>  <ref>  (889) 
Zhonghua Yi Xue Za Zhi 55:31 (1995)

>  <cas#>  (889) 
81025-04-9, 585-86-4

>  <source>  (889) 
semisynthetic

>  <status>  (889) 
USAN, NF, INN, BAN

>  <tradename>  (889) 
nan

>  <SMILES>  (889) 
OC[C@H](O)[C@@H](O)C(O[C@@H]1O[C@H](CO)[C@H](O)[C@H](O)[C@H]1O)[C@H](O)CO

>  <standardized_failed>  (889) 
False

$$$$

     RDKit          2D

 11 10  0  0  0  0  0  0  0  0999 V2000
    1.5417    0.1083    0.0000 C   0  0  0  0  0  0  0  0  0  0  0  0
    1.7417   -0.6167    0.0000 C   0  0  0  0  0  0  0  0  0  0  0  0
    3.3792   -1.7167    0.0000 N   0  0  0  0  0  0  0  0  0  0  0  0
    2.0667    0.6333    0.0000 O   0  0  0  0  0  0  0  0  0  0  0  0
    0.8167    0.2958    0.0000 O   0  0  0  0  0  0  0  0  0  0  0  0
    2.4667   -0.8042    0.0000 C   0  0  0  0  0  0  0  0  0  0  0  0
    2.6667   -1.5292    0.0000 C   0  0  0  0  0  0  0  0  0  0  0  0
    3.1792   -0.2542    0.0000 O   0  0  0  0  0  0  0  0  0  0  0  0
    3.1792   -2.5542    0.0000 C   0  0  0  0  0  0  0  0  0  0  0  0
    3.5917   -0.8667    0.0000 C   0  0  0  0  0  0  0  0  0  0  0  0
    4.3042   -1.8667    0.0000 C   0  0  0  0  0  0  0  0  0  0  0  0
  2  1  1  0
  3  7  1  0
  4  1  1  0
  5  1  2  0
  6  2  1  0
  7  6  1  0
  6  8  1  1
  9  3  1  0
 10  3  1  0
 11  3  1  0
M  CHG  2   3   1   4  -1
M  END
>  <ID>  (890) 


>  <MOLENAME>  (890) 
LEVOCARNITINE

>  <therap>  (890) 
cofactor for fatty acid metabolism, replenisher in arterial disease

>  <ref>  (890) 
Curr. Drug Metab. (2011), 12(7), 667-678; Drug Discovery Today: Dis. Mech. (2009), 6(1-4), e31-e39; Expert Rev. Endocrinol. Metab. (2008), 3(6), 777-783

>  <cas#>  (890) 
541-15-1

>  <source>  (890) 
semisynthetic

>  <status>  (890) 
USP, INN, BAN, JAN

>  <tradename>  (890) 
CARNITOR

>  <SMILES>  (890) 
C[N+](C)(C)C[C@H](O)CC(=O)[O-]

>  <standardized_failed>  (890) 
False

$$$$

     RDKit          2D

 15 16  0  0  0  0  0  0  0  0999 V2000
    5.0917   -1.4667    0.0000 C   0  0  0  0  0  0  0  0  0  0  0  0
    4.6042   -0.8000    0.0000 N   0  0  0  0  0  0  0  0  0  0  0  0
    4.6042   -2.1375    0.0000 N   0  0  0  0  0  0  0  0  0  0  0  0
    5.9167   -1.4667    0.0000 N   0  0  0  0  0  0  0  0  0  0  0  0
    6.3292   -2.1792    0.0000 C   0  0  0  0  0  0  0  0  0  0  0  0
    3.8250   -1.0542    0.0000 C   0  0  0  0  0  0  0  0  0  0  0  0
    3.8250   -1.8792    0.0000 C   0  0  0  0  0  0  0  0  0  0  0  0
    5.9167   -2.9000    0.0000 O   0  0  0  0  0  0  0  0  0  0  0  0
    7.1542   -2.1792    0.0000 O   0  0  0  0  0  0  0  0  0  0  0  0
    3.1042   -0.6417    0.0000 C   0  0  0  0  0  0  0  0  0  0  0  0
    3.1042   -2.3000    0.0000 C   0  0  0  0  0  0  0  0  0  0  0  0
    7.5667   -2.8917    0.0000 C   0  0  0  0  0  0  0  0  0  0  0  0
    8.3917   -2.8917    0.0000 C   0  0  0  0  0  0  0  0  0  0  0  0
    2.3917   -1.8875    0.0000 C   0  0  0  0  0  0  0  0  0  0  0  0
    2.3917   -1.0625    0.0000 C   0  0  0  0  0  0  0  0  0  0  0  0
  2  1  2  0
  3  1  1  0
  4  1  1  0
  5  4  1  0
  6  2  1  0
  7  3  1  0
  8  5  2  0
  9  5  1  0
 10  6  2  0
 11  7  2  0
 12  9  1  0
 13 12  1  0
 14 11  1  0
 15 10  1  0
  7  6  1  0
 14 15  2  0
M  END
>  <ID>  (891) 


>  <MOLENAME>  (891) 
LOBENDAZOLE

>  <therap>  (891) 
anthelmintic

>  <ref>  (891) 
Pestic. Sci. (1979), 10(6), 473-7; Agric. Biol. Chem. (1972), 36(5), 817-23; Pestic. Sci. (1971), 2(4), 160-4

>  <cas#>  (891) 
6306-71-4

>  <source>  (891) 
synthetic; SK&F-24529; NSC-42044

>  <status>  (891) 
USAN, INN

>  <tradename>  (891) 
nan

>  <SMILES>  (891) 
CCOC(=O)Nc1nc2ccccc2[nH]1

>  <standardized_failed>  (891) 
False

$$$$

     RDKit          2D

 22 22  0  0  0  0  0  0  0  0999 V2000
    5.6792   -2.1125    0.0000 S   0  0  0  0  0  0  0  0  0  0  0  0
    5.6875   -3.7667    0.0000 N   0  0  0  0  0  0  0  0  0  0  0  0
    4.9667   -2.5292    0.0000 C   0  0  0  0  0  0  0  0  0  0  0  0
    6.3917   -2.5167    0.0000 C   0  0  0  0  0  0  0  0  0  0  0  0
    4.2542   -2.1167    0.0000 C   0  0  0  0  0  0  0  0  0  0  0  0
    7.1042   -2.1042    0.0000 C   0  0  0  0  0  0  0  0  0  0  0  0
    6.4000   -3.3500    0.0000 C   0  0  0  0  0  0  0  0  0  0  0  0
    4.9667   -3.3542    0.0000 C   0  0  0  0  0  0  0  0  0  0  0  0
    7.8250   -2.5042    0.0000 C   0  0  0  0  0  0  0  0  0  0  0  0
    3.5417   -2.5292    0.0000 C   0  0  0  0  0  0  0  0  0  0  0  0
    2.8292   -2.1167    0.0000 N   0  0  0  0  0  0  0  0  0  0  0  0
    8.5375   -2.0875    0.0000 N   0  0  0  0  0  0  0  0  0  0  0  0
    3.5417   -3.3542    0.0000 C   0  0  0  0  0  0  0  0  0  0  0  0
    7.8292   -3.3417    0.0000 C   0  0  0  0  0  0  0  0  0  0  0  0
    6.3167   -1.0917    0.0000 Cl  0  0  0  0  0  0  0  0  0  0  0  0
    4.2542   -3.7667    0.0000 C   0  0  0  0  0  0  0  0  0  0  0  0
    7.1167   -3.7542    0.0000 C   0  0  0  0  0  0  0  0  0  0  0  0
    9.3042   -3.8375    0.0000 O   0  0  0  0  0  0  0  0  0  0  0  0
    9.2542   -2.4917    0.0000 C   0  0  0  0  0  0  0  0  0  0  0  0
    8.5292   -1.2625    0.0000 C   0  0  0  0  0  0  0  0  0  0  0  0
    2.1125   -2.5292    0.0000 C   0  0  0  0  0  0  0  0  0  0  0  0
    2.8292   -1.2917    0.0000 C   0  0  0  0  0  0  0  0  0  0  0  0
  2  7  1  0
  3  1  2  0
  4  1  1  0
  5  3  1  0
  6  4  2  0
  7  4  1  0
  8  3  1  0
  9  6  1  0
 10  5  2  0
 11 10  1  0
 12  9  1  0
 13 16  2  0
 14 17  1  0
 16  8  1  0
 17  7  2  0
 19 12  1  0
 20 12  1  0
 21 11  1  0
 22 11  1  0
  2  8  2  0
 14  9  2  0
 13 10  1  0
M  CHG  2   1   1  15  -1
M  END
>  <ID>  (892) 


>  <MOLENAME>  (892) 
METHYLENE BLUE

>  <therap>  (892) 
antimethemoglobinemic, cyanide antidote

>  <ref>  (892) 
Eur. J. Pharm. Biopharm. (2008), 69(2), 582-587; Appl. Environ. Microbiol. (2003), 69(11), 6393-6398; Phys. Chem. Chem. Phys. (2002), 4(11), 2320-2328

>  <cas#>  (892) 
7220-79-3

>  <source>  (892) 
synthetic

>  <status>  (892) 
USP, INN, BAN

>  <tradename>  (892) 
nan

>  <SMILES>  (892) 
CN(C)c1ccc2nc3ccc(N(C)C)cc3[s+]c2c1

>  <standardized_failed>  (892) 
False

$$$$

     RDKit          2D

 65 71  0  0  0  0  0  0  0  0999 V2000
    8.7167   -7.0917    0.0000 C   0  0  0  0  0  0  0  0  0  0  0  0
    7.9000   -7.2292    0.0000 C   0  0  0  0  0  0  0  0  0  0  0  0
    7.6042   -7.9917    0.0000 C   0  0  0  0  0  0  0  0  0  0  0  0
    9.1625   -6.3917    0.0000 C   0  0  0  0  0  0  0  0  0  0  0  0
   10.1292   -3.4042    0.0000 C   0  0  0  0  0  0  0  0  0  0  0  0
    9.2417   -7.7292    0.0000 C   0  0  0  0  0  0  0  0  0  0  0  0
    8.9417   -8.4917    0.0000 C   0  0  0  0  0  0  0  0  0  0  0  0
    6.7917   -7.9542    0.0000 O   0  0  0  0  0  0  0  0  0  0  0  0
    7.2542   -6.7167    0.0000 C   0  0  0  0  0  0  0  0  0  0  0  0
    0.0792   -3.5917    0.0000 C   0  0  0  0  0  0  0  0  0  0  0  0
    2.9542   -4.2167    0.0000 C   0  0  0  0  0  0  0  0  0  0  0  0
    8.1292   -8.6292    0.0000 C   0  0  0  0  0  0  0  0  0  0  0  0
   10.8417   -3.8167    0.0000 O   0  0  0  0  0  0  0  0  0  0  0  0
    1.5125   -4.2167    0.0000 C   0  0  0  0  0  0  0  0  0  0  0  0
    4.3917   -3.3917    0.0000 C   0  0  0  0  0  0  0  0  0  0  0  0
    9.4167   -5.4667    0.0000 O   0  0  0  0  0  0  0  0  0  0  0  0
    0.8000   -4.6292    0.0000 O   0  0  0  0  0  0  0  0  0  0  0  0
    4.3875   -4.2167    0.0000 O   0  0  0  0  0  0  0  0  0  0  0  0
    1.5125   -3.5917    0.0000 C   0  0  0  0  0  0  0  0  0  0  0  0
    3.6792   -2.9792    0.0000 C   0  0  0  0  0  0  0  0  0  0  0  0
    0.8000   -3.1792    0.0000 C   0  0  0  0  0  0  0  0  0  0  0  0
    2.9625   -3.3917    0.0000 C   0  0  0  0  0  0  0  0  0  0  0  0
    5.8292   -3.4042    0.0000 C   0  0  0  0  0  0  0  0  0  0  0  0
   10.1292   -4.2292    0.0000 C   0  0  0  0  0  0  0  0  0  0  0  0
    9.4167   -2.9917    0.0000 O   0  0  0  0  0  0  0  0  0  0  0  0
    0.0792   -4.2167    0.0000 C   0  0  0  0  0  0  0  0  0  0  0  0
    3.6750   -4.6292    0.0000 C   0  0  0  0  0  0  0  0  0  0  0  0
   11.5542   -3.4042    0.0000 C   0  0  0  0  0  0  0  0  0  0  0  0
   -0.7125   -3.3667    0.0000 N   0  0  0  0  0  0  0  0  0  0  0  0
    9.4167   -4.6417    0.0000 C   0  0  0  0  0  0  0  0  0  0  0  0
    6.5500   -2.9917    0.0000 C   0  0  0  0  0  0  0  0  0  0  0  0
    2.2292   -4.6292    0.0000 O   0  0  0  0  0  0  0  0  0  0  0  0
   10.1292   -2.5667    0.0000 C   0  0  0  0  0  0  0  0  0  0  0  0
    5.1125   -2.9792    0.0000 O   0  0  0  0  0  0  0  0  0  0  0  0
   10.8417   -2.1542    0.0000 C   0  0  0  0  0  0  0  0  0  0  0  0
    7.2667   -3.4042    0.0000 C   0  0  0  0  0  0  0  0  0  0  0  0
    6.5750   -7.1667    0.0000 C   0  0  0  0  0  0  0  0  0  0  0  0
   -0.9167   -2.5667    0.0000 C   0  0  0  0  0  0  0  0  0  0  0  0
    7.2542   -5.8792    0.0000 C   0  0  0  0  0  0  0  0  0  0  0  0
    9.9000   -6.7125    0.0000 O   0  0  0  0  0  0  0  0  0  0  0  0
    6.5417   -5.4792    0.0000 C   0  0  0  0  0  0  0  0  0  0  0  0
   11.5542   -2.5667    0.0000 C   0  0  0  0  0  0  0  0  0  0  0  0
    8.7000   -4.2292    0.0000 C   0  0  0  0  0  0  0  0  0  0  0  0
    8.7000   -3.4042    0.0000 C   0  0  0  0  0  0  0  0  0  0  0  0
    5.8292   -4.2292    0.0000 C   0  0  0  0  0  0  0  0  0  0  0  0
    6.5417   -4.6417    0.0000 C   0  0  0  0  0  0  0  0  0  0  0  0
    7.9042   -6.4042    0.0000 O   0  0  0  0  0  0  0  0  0  0  0  0
   -0.3250   -1.9958    0.0000 O   0  0  0  0  0  0  0  0  0  0  0  0
    7.9792   -2.9917    0.0000 C   0  0  0  0  0  0  0  0  0  0  0  0
   12.2792   -3.8167    0.0000 C   0  0  0  0  0  0  0  0  0  0  0  0
    7.8417   -9.4167    0.0000 O   0  0  0  0  0  0  0  0  0  0  0  0
    2.2417   -2.9792    0.0000 O   0  0  0  0  0  0  0  0  0  0  0  0
    0.8000   -2.3542    0.0000 O   0  0  0  0  0  0  0  0  0  0  0  0
    9.4667   -9.1417    0.0000 C   0  0  0  0  0  0  0  0  0  0  0  0
    6.5500   -2.1667    0.0000 C   0  0  0  0  0  0  0  0  0  0  0  0
    3.6750   -5.4542    0.0000 C   0  0  0  0  0  0  0  0  0  0  0  0
   -0.7125   -4.4542    0.0000 C   0  0  0  0  0  0  0  0  0  0  0  0
   -1.7083   -2.3417    0.0000 C   0  0  0  0  0  0  0  0  0  0  0  0
   12.2792   -2.1542    0.0000 C   0  0  0  0  0  0  0  0  0  0  0  0
    5.1125   -4.6542    0.0000 C   0  0  0  0  0  0  0  0  0  0  0  0
   12.2750   -4.6542    0.0000 C   0  0  0  0  0  0  0  0  0  0  0  0
   12.9917   -3.4042    0.0000 C   0  0  0  0  0  0  0  0  0  0  0  0
    2.2542   -2.0542    0.0000 C   0  0  0  0  0  0  0  0  0  0  0  0
    1.5083   -1.9375    0.0000 C   0  0  0  0  0  0  0  0  0  0  0  0
   11.5625   -5.0667    0.0000 C   0  0  0  0  0  0  0  0  0  0  0  0
  2  1  1  0
  3  2  1  0
  1  4  1  0
  5 24  1  1
  1  6  1  6
  7  6  2  0
  3  8  1  1
  9  2  1  0
 10 21  1  0
 11 22  1  0
  3 12  1  0
  5 13  1  0
 14 32  1  6
 34 15  1  0
 16  4  1  0
 17 14  1  0
 18 15  1  0
 19 14  1  0
 20 15  1  0
 21 19  1  0
 22 20  1  0
 23 45  1  0
 30 24  1  1
 25 44  1  0
 26 17  1  0
 27 18  1  0
 28 13  1  0
 10 29  1  6
 30 16  1  0
 31 36  2  0
 32 11  1  0
  5 33  1  0
 23 34  1  6
 35 33  2  0
 36 49  1  0
 37  9  1  0
 38 29  1  0
 39  9  2  0
 40  4  2  0
 41 39  1  0
 42 35  1  0
 43 30  1  0
 44 43  1  0
 45 46  1  0
 46 41  2  0
  2 47  1  6
 48 38  2  0
 44 49  1  1
 28 50  1  1
 12 51  1  1
 22 52  1  1
 21 53  1  1
 54  7  1  0
 55 31  1  0
 27 56  1  1
 26 57  1  1
 58 38  1  0
 42 59  1  6
 45 60  1  6
 61 50  1  0
 62 50  1  0
 63 52  1  0
 64 53  1  0
 65 61  1  0
  7 12  1  0
  8 37  1  0
 25  5  1  0
 31 23  1  0
 42 28  1  0
 11 27  1  0
 10 26  1  0
M  END
>  <ID>  (893) 


>  <MOLENAME>  (893) 
EPRINOMECTIN

>  <therap>  (893) 
antiparasitic

>  <ref>  (893) 
Vet. Parasitol. (1997), 73(1,2), 153-161; Am. J. Vet. Res. (1997), 58(6), 612-614; Int. J. Parasitol. (1996), 26(11), 1237-1242

>  <cas#>  (893) 
123997-26-2

>  <source>  (893) 
synthetic; MK-397

>  <status>  (893) 
USAN, INN, BAN

>  <tradename>  (893) 
EPRINEX

>  <SMILES>  (893) 
CCC(C)[C@H]1O[C@]2(C=C[C@@H]1C)C[C@@H]1C[C@@H](C/C=C(\C)[C@@H](OC3C[C@H](OC)C(O[C@H]4C[C@H](OC)[C@@H](NC(C)=O)[C@H](C)O4)[C@H](C)O3)[C@@H](C)/C=C/C=C3\CO[C@@H]4[C@H](O)C(C)=C[C@@H](C(=O)O1)[C@]34O)O2

>  <standardized_failed>  (893) 
False

$$$$

     RDKit          2D

 12 12  0  0  0  0  0  0  0  0999 V2000
    1.3208   -4.1958    0.0000 C   0  0  0  0  0  0  0  0  0  0  0  0
    1.9917   -3.7125    0.0000 S   0  0  0  0  0  0  0  0  0  0  0  0
    0.5375   -3.9417    0.0000 N   0  0  0  0  0  0  0  0  0  0  0  0
    2.6625   -4.1958    0.0000 C   0  0  0  0  0  0  0  0  0  0  0  0
    2.4042   -4.9875    0.0000 N   0  0  0  0  0  0  0  0  0  0  0  0
    3.4458   -3.9417    0.0000 N   0  0  0  0  0  0  0  0  0  0  0  0
    1.5750   -4.9875    0.0000 C   0  0  0  0  0  0  0  0  0  0  0  0
    4.0625   -4.4958    0.0000 C   0  0  0  0  0  0  0  0  0  0  0  0
    0.3625   -3.1292    0.0000 O   0  0  0  0  0  0  0  0  0  0  0  0
   -0.0792   -4.4875    0.0000 O   0  0  0  0  0  0  0  0  0  0  0  0
    3.8875   -5.3000    0.0000 O   0  0  0  0  0  0  0  0  0  0  0  0
    4.8458   -4.2417    0.0000 C   0  0  0  0  0  0  0  0  0  0  0  0
  2  1  1  0
  3  1  1  0
  4  2  1  0
  5  7  1  0
  6  4  1  0
  7  1  2  0
  8  6  1  0
  9  3  1  0
 10  3  2  0
 11  8  2  0
 12  8  1  0
  4  5  2  0
M  CHG  2   3   1   9  -1
M  END
>  <ID>  (894) 


>  <MOLENAME>  (894) 
NITHIAMIDE

>  <therap>  (894) 
antibacterial

>  <ref>  (894) 
Antimicrob. Agents Chemother. (1979), 15(3), 392-5; Antimicrob. Agents Chemother. (1977), 12(3), 353-6; Mol. Pharmacol. (1970), 6(6), 604-16

>  <cas#>  (894) 
140-40-9

>  <source>  (894) 
synthetic; CI-5279

>  <status>  (894) 
USAN, INN, BAN

>  <tradename>  (894) 
nan

>  <SMILES>  (894) 
CC(=O)Nc1ncc([N+](=O)[O-])s1

>  <standardized_failed>  (894) 
False

$$$$

     RDKit          2D

 11 10  0  0  0  0  0  0  0  0999 V2000
    4.1167   -1.0542    0.0000 N   0  0  0  0  0  0  0  0  0  0  0  0
    4.8292   -1.4667    0.0000 C   0  0  0  0  0  0  0  0  0  0  0  0
    6.2542   -0.6292    0.0000 N   0  0  0  0  0  0  0  0  0  0  0  0
    5.5417   -1.0500    0.0000 C   0  0  0  0  0  0  0  0  0  0  0  0
    7.7417   -1.9917    0.0000 Cl  0  0  0  0  0  0  0  0  0  0  0  0
    4.1125   -0.2292    0.0000 C   0  0  0  0  0  0  0  0  0  0  0  0
    3.4042   -1.4667    0.0000 C   0  0  0  0  0  0  0  0  0  0  0  0
    6.9750   -1.0375    0.0000 O   0  0  0  0  0  0  0  0  0  0  0  0
    4.8292   -2.2917    0.0000 C   0  0  0  0  0  0  0  0  0  0  0  0
    3.4042   -2.2917    0.0000 C   0  0  0  0  0  0  0  0  0  0  0  0
    4.1167   -2.7042    0.0000 C   0  0  0  0  0  0  0  0  0  0  0  0
  2  1  2  0
  3  4  2  3
  4  2  1  0
  6  1  1  0
  7  1  1  0
  8  3  1  0
  9  2  1  0
 10  7  2  0
 11 10  1  0
  9 11  2  0
M  CHG  2   1   1   5  -1
M  END
>  <ID>  (895) 


>  <MOLENAME>  (895) 
PRALIDOXIME CHLORIDE

>  <therap>  (895) 
cholesterase agonist

>  <ref>  (895) 
J Pharm Sci 53:1143 (1964); Toxicol Appl Pharmacol 16:40 (1970)

>  <cas#>  (895) 
51-15-0

>  <source>  (895) 
synthetis; 2-PAM

>  <status>  (895) 
USP, INN, BAN

>  <tradename>  (895) 
PROTOPAM

>  <SMILES>  (895) 
C[n+]1c(C=NO)cccc1

>  <standardized_failed>  (895) 
False

$$$$

     RDKit          2D

 33 36  0  0  0  0  0  0  0  0999 V2000
    3.1917   -1.8667    0.0000 C   0  0  0  0  0  0  0  0  0  0  0  0
    1.0417   -3.0875    0.0000 C   0  0  0  0  0  0  0  0  0  0  0  0
    3.9792   -1.6167    0.0000 C   0  0  0  0  0  0  0  0  0  0  0  0
    2.4667   -3.0917    0.0000 C   0  0  0  0  0  0  0  0  0  0  0  0
    3.1875   -2.6917    0.0000 C   0  0  0  0  0  0  0  0  0  0  0  0
    1.7542   -2.6750    0.0000 C   0  0  0  0  0  0  0  0  0  0  0  0
    1.0417   -3.9125    0.0000 C   0  0  0  0  0  0  0  0  0  0  0  0
    2.4875   -1.4417    0.0000 C   0  0  0  0  0  0  0  0  0  0  0  0
    1.7625   -1.8500    0.0000 C   0  0  0  0  0  0  0  0  0  0  0  0
    0.3292   -2.6667    0.0000 C   0  0  0  0  0  0  0  0  0  0  0  0
    4.6917   -1.2042    0.0000 C   0  0  0  0  0  0  0  0  0  0  0  0
    0.3292   -4.3167    0.0000 C   0  0  0  0  0  0  0  0  0  0  0  0
    4.4542   -2.2917    0.0000 C   0  0  0  0  0  0  0  0  0  0  0  0
    3.9667   -2.9500    0.0000 C   0  0  0  0  0  0  0  0  0  0  0  0
    2.4667   -3.9167    0.0000 C   0  0  0  0  0  0  0  0  0  0  0  0
   -0.3750   -3.0875    0.0000 C   0  0  0  0  0  0  0  0  0  0  0  0
   -0.3750   -3.9125    0.0000 C   0  0  0  0  0  0  0  0  0  0  0  0
    1.7542   -4.3167    0.0000 C   0  0  0  0  0  0  0  0  0  0  0  0
    6.8292   -1.6042    0.0000 C   0  0  0  0  0  0  0  0  0  0  0  0
    8.9667   -1.1792    0.0000 C   0  0  0  0  0  0  0  0  0  0  0  0
    5.4042   -1.6042    0.0000 C   0  0  0  0  0  0  0  0  0  0  0  0
    4.6792   -0.3792    0.0000 O   0  0  0  0  0  0  0  0  0  0  0  0
    6.1167   -1.1917    0.0000 O   0  0  0  0  0  0  0  0  0  0  0  0
    6.8292   -2.4292    0.0000 O   0  0  0  0  0  0  0  0  0  0  0  0
    8.9667   -0.3542    0.0000 O   0  0  0  0  0  0  0  0  0  0  0  0
   -1.0958   -4.3167    0.0000 O   0  0  0  0  0  0  0  0  0  0  0  0
    3.7625   -0.8167    0.0000 O   0  0  0  0  0  0  0  0  0  0  0  0
    3.1917   -1.0417    0.0000 C   0  0  0  0  0  0  0  0  0  0  0  0
    1.0542   -1.4292    0.0000 O   0  0  0  0  0  0  0  0  0  0  0  0
    7.5417   -1.1917    0.0000 C   0  0  0  0  0  0  0  0  0  0  0  0
    8.2542   -1.6000    0.0000 C   0  0  0  0  0  0  0  0  0  0  0  0
    1.0417   -2.2625    0.0000 C   0  0  0  0  0  0  0  0  0  0  0  0
    9.6792   -1.5917    0.0000 O   0  0  0  0  0  0  0  0  0  0  0  0
  2  6  1  0
  3  1  1  0
  4  5  1  0
  5  1  1  0
  6  9  1  0
  7  2  1  0
  8  1  1  0
  9  8  1  0
 10  2  1  0
  3 11  1  0
 12  7  2  0
 13  3  1  0
 14  5  1  0
 15  4  1  0
 16 10  2  0
 17 16  1  0
 18 15  1  0
 19 23  1  0
 20 31  1  0
 21 11  1  0
 22 11  2  0
 23 21  1  0
 24 19  2  0
 25 20  2  0
 26 17  2  0
  3 27  1  6
  1 28  1  1
  9 29  1  1
 30 19  1  0
 31 30  1  0
  2 32  1  1
 33 20  1  0
 13 14  1  0
  6  4  1  0
 18  7  1  0
 17 12  1  0
M  END
>  <ID>  (896) 


>  <MOLENAME>  (896) 
PREDNISOLONE HEMISUCCINATE

>  <therap>  (896) 
antiinflammatory, glucocorticoid

>  <ref>  (896) 
Ther Drug Monit 2:169 (1980); Anal Profiles Drug Subs Excip 21:415 (1992); Ophthalmic Res 36:231 (2001)

>  <cas#>  (896) 
2920-86-7

>  <source>  (896) 
semisynthetic

>  <status>  (896) 
USP, JAN

>  <tradename>  (896) 
CORT SOL

>  <SMILES>  (896) 
C[C@]12C[C@H](O)C3C(CCC4=CC(=O)C=C[C@@]43C)C1CC[C@]2(O)C(=O)COC(=O)CCC(=O)O

>  <standardized_failed>  (896) 
False

$$$$

     RDKit          2D

 12 12  0  0  0  0  0  0  0  0999 V2000
    5.8292   -1.3917    0.0000 C   0  0  0  0  0  0  0  0  0  0  0  0
    6.5500   -1.8042    0.0000 C   0  0  0  0  0  0  0  0  0  0  0  0
    5.8292   -3.0500    0.0000 N   0  0  0  0  0  0  0  0  0  0  0  0
    5.1167   -1.8125    0.0000 C   0  0  0  0  0  0  0  0  0  0  0  0
    6.5500   -2.6375    0.0000 C   0  0  0  0  0  0  0  0  0  0  0  0
    5.1167   -2.6375    0.0000 C   0  0  0  0  0  0  0  0  0  0  0  0
    7.2625   -1.3917    0.0000 O   0  0  0  0  0  0  0  0  0  0  0  0
    5.8292   -0.5667    0.0000 C   0  0  0  0  0  0  0  0  0  0  0  0
    4.4042   -1.4000    0.0000 C   0  0  0  0  0  0  0  0  0  0  0  0
    6.5417   -0.1542    0.0000 O   0  0  0  0  0  0  0  0  0  0  0  0
    4.4042   -0.5750    0.0000 O   0  0  0  0  0  0  0  0  0  0  0  0
    7.2667   -3.0500    0.0000 C   0  0  0  0  0  0  0  0  0  0  0  0
  2  1  2  0
  3  6  1  0
  4  1  1  0
  5  2  1  0
  6  4  2  0
  7  2  1  0
  8  1  1  0
  9  4  1  0
 10  8  1  0
 11  9  1  0
 12  5  1  0
  3  5  2  0
M  END
>  <ID>  (897) 


>  <MOLENAME>  (897) 
PYRIDOXINE

>  <therap>  (897) 
vitamin B6, enzyme cofactor

>  <ref>  (897) 
Acta Neurol Scand 76:8 (1987); Biol Pharm Bull 32:597 (2009)

>  <cas#>  (897) 
65-23-6

>  <source>  (897) 
rice husks, wheat germ, yeast

>  <status>  (897) 
USP, INN, BAN, JAN

>  <tradename>  (897) 
HEXABETALIN

>  <SMILES>  (897) 
Cc1ncc(CO)c(CO)c1O

>  <standardized_failed>  (897) 
False

$$$$

     RDKit          2D

 30 34  0  0  0  0  0  0  0  0999 V2000
    3.4958   -3.0750    0.0000 C   0  0  0  0  0  0  0  0  0  0  0  0
    2.7792   -3.4833    0.0000 C   0  0  0  0  0  0  0  0  0  0  0  0
    2.0667   -3.0667    0.0000 N   0  0  0  0  0  0  0  0  0  0  0  0
    2.7833   -1.8333    0.0000 N   0  0  0  0  0  0  0  0  0  0  0  0
    2.0708   -2.2417    0.0000 C   0  0  0  0  0  0  0  0  0  0  0  0
    7.8500   -5.5542    0.0000 N   0  0  0  0  0  0  0  0  0  0  0  0
    3.4958   -2.2500    0.0000 C   0  0  0  0  0  0  0  0  0  0  0  0
    7.7667   -4.7333    0.0000 C   0  0  0  0  0  0  0  0  0  0  0  0
    8.5250   -4.4042    0.0000 C   0  0  0  0  0  0  0  0  0  0  0  0
    8.6583   -5.7292    0.0000 O   0  0  0  0  0  0  0  0  0  0  0  0
    9.0708   -5.0208    0.0000 C   0  0  0  0  0  0  0  0  0  0  0  0
    4.2042   -3.4875    0.0000 C   0  0  0  0  0  0  0  0  0  0  0  0
    5.6292   -3.4917    0.0000 N   0  0  0  0  0  0  0  0  0  0  0  0
    8.7833   -3.6250    0.0000 C   0  0  0  0  0  0  0  0  0  0  0  0
    9.8750   -4.8542    0.0000 C   0  0  0  0  0  0  0  0  0  0  0  0
    2.7708   -4.3083    0.0000 O   0  0  0  0  0  0  0  0  0  0  0  0
    7.0542   -4.3208    0.0000 C   0  0  0  0  0  0  0  0  0  0  0  0
    4.9167   -3.0792    0.0000 C   0  0  0  0  0  0  0  0  0  0  0  0
   10.1375   -4.0708    0.0000 C   0  0  0  0  0  0  0  0  0  0  0  0
    7.0542   -3.4958    0.0000 C   0  0  0  0  0  0  0  0  0  0  0  0
    6.3375   -4.7250    0.0000 C   0  0  0  0  0  0  0  0  0  0  0  0
    6.3417   -3.0792    0.0000 C   0  0  0  0  0  0  0  0  0  0  0  0
    5.6292   -4.3125    0.0000 C   0  0  0  0  0  0  0  0  0  0  0  0
    1.3583   -3.4792    0.0000 C   0  0  0  0  0  0  0  0  0  0  0  0
    9.5833   -3.4583    0.0000 C   0  0  0  0  0  0  0  0  0  0  0  0
    1.3583   -1.8292    0.0000 C   0  0  0  0  0  0  0  0  0  0  0  0
    4.2125   -1.8417    0.0000 C   0  0  0  0  0  0  0  0  0  0  0  0
   10.9458   -3.9042    0.0000 F   0  0  0  0  0  0  0  0  0  0  0  0
    0.6500   -3.0667    0.0000 C   0  0  0  0  0  0  0  0  0  0  0  0
    0.6500   -2.2417    0.0000 C   0  0  0  0  0  0  0  0  0  0  0  0
  2  1  1  0
  3  2  1  0
  4  7  1  0
  5  4  2  0
  6  8  2  0
  7  1  2  0
  8 17  1  0
  9  8  1  0
 10  6  1  0
 11  9  2  0
 12  1  1  0
 13 18  1  0
 14  9  1  0
 15 11  1  0
 16  2  2  0
 17 21  1  0
 18 12  1  0
 19 25  1  0
 20 22  1  0
 21 23  1  0
 22 13  1  0
 23 13  1  0
 24  3  1  0
 25 14  2  0
 26  5  1  0
 27  7  1  0
 28 19  1  0
 29 24  1  0
 30 26  1  0
  3  5  1  0
 20 17  1  0
 29 30  1  0
 11 10  1  0
 19 15  2  0
M  END
>  <ID>  (898) 


>  <MOLENAME>  (898) 
RISPERIDONE

>  <therap>  (898) 
neuroleptic

>  <ref>  (898) 
Am J Therapeutics 4:159 (1997); Pharmacotherapy 26:748 (2006)

>  <cas#>  (898) 
106266-06-2

>  <source>  (898) 
synthetic; R-64766

>  <status>  (898) 
USAN, INN, BAN

>  <tradename>  (898) 
RISPERDAL

>  <SMILES>  (898) 
Cc1c(CCN2CCC(c3noc4c3ccc(F)c4)CC2)c(=O)n2CCCCc2n1

>  <standardized_failed>  (898) 
False

$$$$

     RDKit          2D

 21 22  0  0  0  0  0  0  0  0999 V2000
    6.5875  -10.2042    0.0000 S   0  0  0  0  0  0  0  0  0  0  0  0
    8.4625  -10.5542    0.0000 C   0  0  0  0  0  0  0  0  0  0  0  0
    7.6750  -10.2042    0.0000 N   0  0  0  0  0  0  0  0  0  0  0  0
    8.6917  -11.2792    0.0000 C   0  0  0  0  0  0  0  0  0  0  0  0
    9.6792  -10.5542    0.0000 N   0  0  0  0  0  0  0  0  0  0  0  0
    9.0750  -10.1167    0.0000 O   0  0  0  0  0  0  0  0  0  0  0  0
    9.4500  -11.2792    0.0000 C   0  0  0  0  0  0  0  0  0  0  0  0
    5.8375  -10.2042    0.0000 C   0  0  0  0  0  0  0  0  0  0  0  0
    6.9625   -9.5542    0.0000 O   0  0  0  0  0  0  0  0  0  0  0  0
    6.9625  -10.8542    0.0000 O   0  0  0  0  0  0  0  0  0  0  0  0
    3.2000   -9.5542    0.0000 C   0  0  0  0  0  0  0  0  0  0  0  0
    3.5750  -10.2042    0.0000 N   0  0  0  0  0  0  0  0  0  0  0  0
    3.5750   -8.9042    0.0000 O   0  0  0  0  0  0  0  0  0  0  0  0
    5.4542   -9.5542    0.0000 C   0  0  0  0  0  0  0  0  0  0  0  0
    5.4542  -10.8542    0.0000 C   0  0  0  0  0  0  0  0  0  0  0  0
    4.3250  -10.2042    0.0000 C   0  0  0  0  0  0  0  0  0  0  0  0
    8.2542  -11.8792    0.0000 C   0  0  0  0  0  0  0  0  0  0  0  0
    4.7042  -10.8542    0.0000 C   0  0  0  0  0  0  0  0  0  0  0  0
    4.7000   -9.5542    0.0000 C   0  0  0  0  0  0  0  0  0  0  0  0
    9.8875  -11.8792    0.0000 C   0  0  0  0  0  0  0  0  0  0  0  0
    2.4417   -9.5542    0.0000 C   0  0  0  0  0  0  0  0  0  0  0  0
  2  3  1  0
  3  1  1  0
  4  2  2  0
  5  6  1  0
  6  2  1  0
  7  4  1  0
  8  1  1  0
  9  1  2  0
 10  1  2  0
 11 12  1  0
 12 16  1  0
 13 11  2  0
 14  8  2  0
 15  8  1  0
 16 18  1  0
 17  4  1  0
 18 15  2  0
 19 14  1  0
 20  7  1  0
 21 11  1  0
 16 19  2  0
  5  7  2  0
M  END
>  <ID>  (899) 


>  <MOLENAME>  (899) 
SULFISOXAZOLE ACETYL

>  <therap>  (899) 
antibacterial

>  <ref>  (899) 
Arzneim Forsch 15:1441 (1965); Anal Profiles Drug Subs 2:487 (1973)

>  <cas#>  (899) 
80-74-0

>  <source>  (899) 
synthetic

>  <status>  (899) 
USP

>  <tradename>  (899) 
GANTRISIN

>  <SMILES>  (899) 
CC(=O)Nc1ccc(S(=O)(=O)Nc2c(C)c(C)no2)cc1

>  <standardized_failed>  (899) 
False

$$$$

     RDKit          2D

  7  6  0  0  0  0  0  0  0  0999 V2000
    1.8875   -0.8667    0.0000 S   0  0  0  0  0  0  0  0  0  0  0  0
    1.1750   -1.2792    0.0000 C   0  0  0  0  0  0  0  0  0  0  0  0
    1.4667   -0.1500    0.0000 O   0  0  0  0  0  0  0  0  0  0  0  0
    2.4667   -0.2792    0.0000 O   0  0  0  0  0  0  0  0  0  0  0  0
    2.6000   -1.2792    0.0000 O   0  0  0  0  0  0  0  0  0  0  0  0
   -0.2500   -1.2792    0.0000 N   0  0  0  0  0  0  0  0  0  0  0  0
    0.4625   -0.8667    0.0000 C   0  0  0  0  0  0  0  0  0  0  0  0
  2  1  1  0
  3  1  2  0
  4  1  2  0
  5  1  1  0
  6  7  1  0
  7  2  1  0
M  END
>  <ID>  (900) 


>  <MOLENAME>  (900) 
TAURINE

>  <therap>  (900) 
neuroprotectant, inhibitory neurotransmitter, GABA agonist

>  <ref>  (900) 
Am J Clin Nutrition 47:660 (1988); Amino Acids 23:381 (2002); Endocrinology 147:3276 (2006)

>  <cas#>  (900) 
107-35-7

>  <source>  (900) 
widespread in animal tissue

>  <status>  (900) 
USP, INN, JAN

>  <tradename>  (900) 
nan

>  <SMILES>  (900) 
NCCS(=O)(=O)O

>  <standardized_failed>  (900) 
False

$$$$

     RDKit          2D

 17 18  0  0  0  0  0  0  0  0999 V2000
    4.1042   -3.2042    0.0000 O   0  0  0  0  0  0  0  0  0  0  0  0
    3.3917   -3.6167    0.0000 C   0  0  0  0  0  0  0  0  0  0  0  0
    4.1042   -2.3792    0.0000 C   0  0  0  0  0  0  0  0  0  0  0  0
    3.3917   -4.4417    0.0000 C   0  0  0  0  0  0  0  0  0  0  0  0
    4.8167   -1.9667    0.0000 C   0  0  0  0  0  0  0  0  0  0  0  0
    2.6792   -4.8625    0.0000 C   0  0  0  0  0  0  0  0  0  0  0  0
    4.8167   -1.1417    0.0000 C   0  0  0  0  0  0  0  0  0  0  0  0
    2.6792   -3.2042    0.0000 C   0  0  0  0  0  0  0  0  0  0  0  0
    3.3917   -1.9750    0.0000 C   0  0  0  0  0  0  0  0  0  0  0  0
    4.1000   -0.7292    0.0000 C   0  0  0  0  0  0  0  0  0  0  0  0
    1.9667   -4.4417    0.0000 C   0  0  0  0  0  0  0  0  0  0  0  0
    4.1125   -4.8625    0.0000 Cl  0  0  0  0  0  0  0  0  0  0  0  0
    5.5292   -2.3792    0.0000 O   0  0  0  0  0  0  0  0  0  0  0  0
    3.3792   -1.1542    0.0000 C   0  0  0  0  0  0  0  0  0  0  0  0
    1.9667   -3.6250    0.0000 C   0  0  0  0  0  0  0  0  0  0  0  0
    4.0917    0.0958    0.0000 Cl  0  0  0  0  0  0  0  0  0  0  0  0
    1.2500   -4.8625    0.0000 Cl  0  0  0  0  0  0  0  0  0  0  0  0
  2  1  1  0
  3  1  1  0
  4  2  2  0
  5  3  2  0
  6  4  1  0
  7  5  1  0
  8  2  1  0
  9  3  1  0
 10 14  1  0
 11 15  1  0
 12  4  1  0
 13  5  1  0
 14  9  2  0
 15  8  2  0
 16 10  1  0
 17 11  1  0
 10  7  2  0
  6 11  2  0
M  END
>  <ID>  (901) 


>  <MOLENAME>  (901) 
TRICLOSAN

>  <therap>  (901) 
antiinfective

>  <ref>  (901) 
Drugs Cosmet Ind 109(3):36, 171 (1971); Toxicology 3:33 (1975); Ind Med Surg 38(2):64 (1969)

>  <cas#>  (901) 
3380-34-5

>  <source>  (901) 
synthetic; CH-3565

>  <status>  (901) 
USP, INN, BAN

>  <tradename>  (901) 
STRI-DEX

>  <SMILES>  (901) 
Oc1c(Oc2c(Cl)cc(Cl)cc2)ccc(Cl)c1

>  <standardized_failed>  (901) 
False

$$$$

     RDKit          2D

 20 19  0  0  0  0  0  0  0  0999 V2000
    4.7167   -1.9125    0.0000 N   0  0  0  0  0  0  0  0  0  0  0  0
    4.6292   -2.7292    0.0000 C   0  0  0  0  0  0  0  0  0  0  0  0
    3.9542   -1.5792    0.0000 C   0  0  0  0  0  0  0  0  0  0  0  0
    3.4125   -2.2000    0.0000 S   0  0  0  0  0  0  0  0  0  0  0  0
    7.5750   -2.7250    0.0000 N   0  0  0  0  0  0  0  0  0  0  0  0
    3.8250   -2.9042    0.0000 C   0  0  0  0  0  0  0  0  0  0  0  0
    6.8500   -1.4875    0.0000 N   0  0  0  0  0  0  0  0  0  0  0  0
    6.8625   -3.1375    0.0000 C   0  0  0  0  0  0  0  0  0  0  0  0
    6.1417   -1.9042    0.0000 C   0  0  0  0  0  0  0  0  0  0  0  0
    7.5667   -1.8917    0.0000 C   0  0  0  0  0  0  0  0  0  0  0  0
    5.4292   -1.4917    0.0000 C   0  0  0  0  0  0  0  0  0  0  0  0
    6.1417   -2.7292    0.0000 C   0  0  0  0  0  0  0  0  0  0  0  0
    5.0625   -0.3750    0.0000 Cl  0  0  0  0  0  0  0  0  0  0  0  0
    6.8625   -3.9625    0.0000 N   0  0  0  0  0  0  0  0  0  0  0  0
    3.4917   -3.6667    0.0000 C   0  0  0  0  0  0  0  0  0  0  0  0
    8.9667   -3.6542    0.0000 Cl  0  0  0  0  0  0  0  0  0  0  0  0
    5.2417   -3.2792    0.0000 C   0  0  0  0  0  0  0  0  0  0  0  0
    2.3417   -4.5042    0.0000 O   0  0  0  0  0  0  0  0  0  0  0  0
    8.2792   -1.4750    0.0000 C   0  0  0  0  0  0  0  0  0  0  0  0
    2.6750   -3.7542    0.0000 C   0  0  0  0  0  0  0  0  0  0  0  0
  2  1  1  0
  3  1  2  0
  4  3  1  0
  5  8  2  0
  6  2  2  0
  7  9  1  0
  8 12  1  0
  9 11  1  0
 10  7  2  0
 11  1  1  0
 12  9  2  0
 14  8  1  0
 15  6  1  0
 17  2  1  0
 18 20  1  0
 19 10  1  0
 20 15  1  0
  6  4  1  0
 10  5  1  0
M  CHG  2   1   1  13  -1
M  END
>  <ID>  (902) 


>  <MOLENAME>  (902) 
THIAMINE

>  <therap>  (902) 
vitamin B1, enzyme cofactor

>  <ref>  (902) 
Anal Profiles Drug Subs 18:413 (1989); Am J Clin Nutr 36:1067 (1982); J Pharm Sci 82:56 (1993)

>  <cas#>  (902) 
67-03-8

>  <source>  (902) 
rice husks, wheat germ, yeast

>  <status>  (902) 
USP, INN, BAN, JAN

>  <tradename>  (902) 
BETALIN-S

>  <SMILES>  (902) 
Cc1nc(C[n+]2csc(CCO)c2C)cc(N)n1

>  <standardized_failed>  (902) 
False

$$$$

     RDKit          2D

 10 10  0  0  0  0  0  0  0  0999 V2000
    4.3250   -4.7458    0.0000 N   0  0  0  0  0  0  0  0  0  0  0  0
    4.5792   -3.9583    0.0000 C   0  0  0  0  0  0  0  0  0  0  0  0
    3.5000   -4.7458    0.0000 C   0  0  0  0  0  0  0  0  0  0  0  0
    3.9125   -3.4750    0.0000 O   0  0  0  0  0  0  0  0  0  0  0  0
    3.2458   -3.9583    0.0000 C   0  0  0  0  0  0  0  0  0  0  0  0
    5.3667   -3.7042    0.0000 O   0  0  0  0  0  0  0  0  0  0  0  0
    3.0125   -5.4125    0.0000 O   0  0  0  0  0  0  0  0  0  0  0  0
    4.8083   -5.4125    0.0000 C   0  0  0  0  0  0  0  0  0  0  0  0
    2.8292   -3.2417    0.0000 C   0  0  0  0  0  0  0  0  0  0  0  0
    2.5292   -4.3667    0.0000 C   0  0  0  0  0  0  0  0  0  0  0  0
  2  1  1  0
  3  1  1  0
  4  2  1  0
  5  3  1  0
  6  2  2  0
  7  3  2  0
  8  1  1  0
  9  5  1  0
 10  5  1  0
  5  4  1  0
M  END
>  <ID>  (903) 


>  <MOLENAME>  (903) 
TRIMETHADIONE

>  <therap>  (903) 
anticonvulsant

>  <ref>  (903) 
Pharmacol Toxicol 26:177 (1968); 27:295 (1969); Toxicol Appl Pharmacol 30:452 (1974)

>  <cas#>  (903) 
127-48-0

>  <source>  (903) 
synthetic

>  <status>  (903) 
USP-XXIII, INN, BAN, JAN

>  <tradename>  (903) 
TRIDIONE

>  <SMILES>  (903) 
CN1C(=O)OC(C)(C)C1=O

>  <standardized_failed>  (903) 
False

$$$$

     RDKit          2D

 26 26  0  0  0  0  0  0  0  0999 V2000
    3.8333   -1.9625    0.0000 C   0  0  0  0  0  0  0  0  0  0  0  0
    3.8333   -1.1375    0.0000 C   0  0  0  0  0  0  0  0  0  0  0  0
    3.1167   -2.3792    0.0000 N   0  0  0  0  0  0  0  0  0  0  0  0
    4.6167   -2.2167    0.0000 N   0  0  0  0  0  0  0  0  0  0  0  0
    2.4042   -1.1375    0.0000 N   0  0  0  0  0  0  0  0  0  0  0  0
    4.6167   -0.8792    0.0000 N   0  0  0  0  0  0  0  0  0  0  0  0
    3.1167   -0.7250    0.0000 C   0  0  0  0  0  0  0  0  0  0  0  0
    2.4042   -1.9667    0.0000 C   0  0  0  0  0  0  0  0  0  0  0  0
    5.1042   -1.5500    0.0000 C   0  0  0  0  0  0  0  0  0  0  0  0
    8.4375   -3.4125    0.0000 C   0  0  0  0  0  0  0  0  0  0  0  0
    4.8750   -3.0042    0.0000 C   0  0  0  0  0  0  0  0  0  0  0  0
    9.1500   -3.0000    0.0000 C   0  0  0  0  0  0  0  0  0  0  0  0
    3.1125    0.1000    0.0000 O   0  0  0  0  0  0  0  0  0  0  0  0
    7.7250   -3.0000    0.0000 O   0  0  0  0  0  0  0  0  0  0  0  0
    8.4375   -4.2375    0.0000 O   0  0  0  0  0  0  0  0  0  0  0  0
    1.6875   -2.3792    0.0000 N   0  0  0  0  0  0  0  0  0  0  0  0
    5.5875   -3.4125    0.0000 O   0  0  0  0  0  0  0  0  0  0  0  0
    6.3000   -3.0000    0.0000 C   0  0  0  0  0  0  0  0  0  0  0  0
    9.1417   -2.1750    0.0000 N   0  0  0  0  0  0  0  0  0  0  0  0
    7.0125   -3.4125    0.0000 C   0  0  0  0  0  0  0  0  0  0  0  0
    9.8625   -3.4125    0.0000 C   0  0  0  0  0  0  0  0  0  0  0  0
   10.4292   -1.4042    0.0000 Cl  0  0  0  0  0  0  0  0  0  0  0  0
    7.0125   -1.7625    0.0000 O   0  0  0  0  0  0  0  0  0  0  0  0
    6.3000   -2.1750    0.0000 C   0  0  0  0  0  0  0  0  0  0  0  0
    9.8625   -4.2375    0.0000 C   0  0  0  0  0  0  0  0  0  0  0  0
   10.5750   -3.0000    0.0000 C   0  0  0  0  0  0  0  0  0  0  0  0
  2  1  2  0
  3  1  1  0
  4  1  1  0
  5  7  1  0
  6  2  1  0
  7  2  1  0
  8  3  2  0
  9  4  1  0
 10 14  1  0
 11  4  1  0
 12 10  1  0
 13  7  2  0
 14 20  1  0
 15 10  2  0
 16  8  1  0
 17 11  1  0
 18 17  1  0
 12 19  1  1
 20 18  1  0
 21 12  1  0
 23 24  1  0
 24 18  1  0
 25 21  1  0
 26 21  1  0
  6  9  2  0
  8  5  1  0
M  END
>  <ID>  (904) 


>  <MOLENAME>  (904) 
VALGANCICLOVIR HYDROCHLORIDE

>  <therap>  (904) 
antiviral

>  <ref>  (904) 
Clin Pharmacokinet 37:167 (1999);N Engl J Med 346:1119 (2002)

>  <cas#>  (904) 
175865-59-5

>  <source>  (904) 
synthetic; RS-079070-194

>  <status>  (904) 
USAN, INN, BAN

>  <tradename>  (904) 
VALCYTE

>  <SMILES>  (904) 
CC(C)[C@H](N)C(=O)OCC(CO)OCn1cnc2c1nc(N)[nH]c2=O

>  <standardized_failed>  (904) 
False

$$$$

     RDKit          2D

 13 12  0  0  0  0  0  0  0  0999 V2000
    4.0000   -1.3167    0.0000 C   0  0  0  0  0  0  0  0  0  0  0  0
    4.7125   -0.9042    0.0000 O   0  0  0  0  0  0  0  0  0  0  0  0
   -2.4125   -0.9292    0.0000 C   0  0  0  0  0  0  0  0  0  0  0  0
   -3.1250   -1.3417    0.0000 C   0  0  0  0  0  0  0  0  0  0  0  0
    4.0000   -2.1417    0.0000 O   0  0  0  0  0  0  0  0  0  0  0  0
    3.2875   -0.9125    0.0000 C   0  0  0  0  0  0  0  0  0  0  0  0
   -1.7000   -1.3375    0.0000 C   0  0  0  0  0  0  0  0  0  0  0  0
    2.5750   -1.3250    0.0000 C   0  0  0  0  0  0  0  0  0  0  0  0
   -0.9875   -0.9250    0.0000 C   0  0  0  0  0  0  0  0  0  0  0  0
    0.4375   -0.9167    0.0000 C   0  0  0  0  0  0  0  0  0  0  0  0
    1.1500   -1.3292    0.0000 C   0  0  0  0  0  0  0  0  0  0  0  0
    1.8625   -0.9167    0.0000 C   0  0  0  0  0  0  0  0  0  0  0  0
   -0.2750   -1.3292    0.0000 C   0  0  0  0  0  0  0  0  0  0  0  0
  2  1  2  0
  3  7  1  0
  4  3  2  0
  5  1  1  0
  6  1  1  0
  7  9  1  0
  8  6  1  0
  9 13  1  0
 10 11  1  0
 11 12  1  0
 12  8  1  0
 13 10  1  0
M  END
>  <ID>  (905) 


>  <MOLENAME>  (905) 
UNDECYLENIC ACID

>  <therap>  (905) 
antifungal

>  <ref>  (905) 
Int J Dermatol 19:51 (1980)

>  <cas#>  (905) 
112-38-9

>  <source>  (905) 
semisynthetic

>  <status>  (905) 
USP, JAN

>  <tradename>  (905) 
nan

>  <SMILES>  (905) 
C=CCCCCCCCCC(=O)O

>  <standardized_failed>  (905) 
False

$$$$

     RDKit          2D

 45 45  0  0  0  0  0  0  0  0999 V2000
    7.0542   -2.6542    0.0000 C   0  0  0  0  0  0  0  0  0  0  0  0
    7.8792   -4.0792    0.0000 C   0  0  0  0  0  0  0  0  0  0  0  0
    7.8792   -2.6542    0.0000 O   0  0  0  0  0  0  0  0  0  0  0  0
    6.6417   -3.3667    0.0000 C   0  0  0  0  0  0  0  0  0  0  0  0
    7.0542   -4.0792    0.0000 C   0  0  0  0  0  0  0  0  0  0  0  0
    6.6292   -1.9292    0.0000 C   0  0  0  0  0  0  0  0  0  0  0  0
    8.2917   -3.3667    0.0000 C   0  0  0  0  0  0  0  0  0  0  0  0
    5.3792   -1.2417    0.0000 C   0  0  0  0  0  0  0  0  0  0  0  0
    5.8042   -1.9417    0.0000 N   0  0  0  0  0  0  0  0  0  0  0  0
    4.1417   -0.5292    0.0000 N   0  0  0  0  0  0  0  0  0  0  0  0
    4.5542   -1.2417    0.0000 C   0  0  0  0  0  0  0  0  0  0  0  0
    8.3042   -4.8042    0.0000 O   0  0  0  0  0  0  0  0  0  0  0  0
    3.3292   -0.7042    0.0000 C   0  0  0  0  0  0  0  0  0  0  0  0
    9.0167   -5.2167    0.0000 C   0  0  0  0  0  0  0  0  0  0  0  0
    5.7917   -0.5167    0.0000 O   0  0  0  0  0  0  0  0  0  0  0  0
    3.9917   -1.8667    0.0000 C   0  0  0  0  0  0  0  0  0  0  0  0
    7.0417   -1.2042    0.0000 C   0  0  0  0  0  0  0  0  0  0  0  0
    9.0208   -6.0417    0.0000 O   0  0  0  0  0  0  0  0  0  0  0  0
    9.1167   -3.3667    0.0000 S   0  0  0  0  0  0  0  0  0  0  0  0
    3.2542   -1.5292    0.0000 C   0  0  0  0  0  0  0  0  0  0  0  0
    5.8167   -3.3667    0.0000 O   0  0  0  0  0  0  0  0  0  0  0  0
    6.6292   -4.8042    0.0000 O   0  0  0  0  0  0  0  0  0  0  0  0
    4.4792    0.2333    0.0000 C   0  0  0  0  0  0  0  0  0  0  0  0
    7.8667   -1.1917    0.0000 Cl  0  0  0  0  0  0  0  0  0  0  0  0
    2.6292    0.1583    0.0000 Cl  0  0  0  0  0  0  0  0  0  0  0  0
    9.7292   -4.8042    0.0000 C   0  0  0  0  0  0  0  0  0  0  0  0
    2.5292   -1.9542    0.0000 C   0  0  0  0  0  0  0  0  0  0  0  0
    9.5292   -2.6542    0.0000 C   0  0  0  0  0  0  0  0  0  0  0  0
    6.6167   -0.5042    0.0000 C   0  0  0  0  0  0  0  0  0  0  0  0
   10.4417   -5.2125    0.0000 C   0  0  0  0  0  0  0  0  0  0  0  0
    2.5417   -2.7792    0.0000 C   0  0  0  0  0  0  0  0  0  0  0  0
   11.1542   -6.4417    0.0000 C   0  0  0  0  0  0  0  0  0  0  0  0
   11.8667   -6.0292    0.0000 C   0  0  0  0  0  0  0  0  0  0  0  0
   14.0042   -4.7917    0.0000 C   0  0  0  0  0  0  0  0  0  0  0  0
   14.7167   -5.2000    0.0000 C   0  0  0  0  0  0  0  0  0  0  0  0
   14.7167   -6.0167    0.0000 C   0  0  0  0  0  0  0  0  0  0  0  0
   14.0042   -6.4292    0.0000 C   0  0  0  0  0  0  0  0  0  0  0  0
   13.2917   -6.0250    0.0000 C   0  0  0  0  0  0  0  0  0  0  0  0
   12.5792   -6.4375    0.0000 C   0  0  0  0  0  0  0  0  0  0  0  0
   11.1542   -4.8000    0.0000 C   0  0  0  0  0  0  0  0  0  0  0  0
   11.8667   -5.2042    0.0000 C   0  0  0  0  0  0  0  0  0  0  0  0
   12.5792   -4.7917    0.0000 C   0  0  0  0  0  0  0  0  0  0  0  0
   13.2917   -5.2042    0.0000 C   0  0  0  0  0  0  0  0  0  0  0  0
    1.8292   -3.1917    0.0000 C   0  0  0  0  0  0  0  0  0  0  0  0
   10.4417   -6.0292    0.0000 C   0  0  0  0  0  0  0  0  0  0  0  0
  2  5  1  0
  3  1  1  0
  4  1  1  0
  5  4  1  0
  6  1  1  0
  7  3  1  0
  8  9  1  0
  6  9  1  6
 10 11  1  0
 11  8  1  6
  2 12  1  6
 13 10  1  0
 14 12  1  0
 15  8  2  0
 16 11  1  0
 17  6  1  0
 18 14  2  0
  7 19  1  6
 20 16  1  0
  4 21  1  1
  5 22  1  1
 23 10  1  0
 17 24  1  0
 26 14  1  0
 20 27  1  1
 28 19  1  0
 17 29  1  6
 30 26  1  0
 31 27  1  0
 32 33  1  0
 33 39  1  0
 34 43  1  0
 35 34  1  0
 36 35  1  0
 37 36  1  0
 38 37  1  0
 39 38  1  0
 40 30  1  0
 41 40  1  0
 42 41  1  0
 43 42  1  0
 44 31  1  0
 45 32  1  0
  2  7  1  0
 20 13  1  0
M  END
>  <ID>  (906) 


>  <MOLENAME>  (906) 
CLINDAMYCIN PALMITATE HYDROCHLORIDE

>  <therap>  (906) 
antibacterial, inhibits protein synthesis

>  <ref>  (906) 
Anal Profiles Drug Subs 10:75 (1981)

>  <cas#>  (906) 
25507--04-4

>  <source>  (906) 
semisynthetic; U-25179E

>  <status>  (906) 
USP, JAN

>  <tradename>  (906) 
CLEOCIN

>  <SMILES>  (906) 
CCCCCCCCCCCCCCCC(=O)O[C@@H]1[C@@H](O)[C@@H](O)C([C@H](NC(=O)[C@@H]2C[C@@H](CCC)CN2C)[C@H](C)Cl)O[C@@H]1SC

>  <standardized_failed>  (906) 
False

$$$$

     RDKit          2D

 37 38  0  0  0  0  0  0  0  0999 V2000
    4.4750   -0.0917    0.0000 N   0  0  0  0  0  0  0  0  0  0  0  0
    3.7167   -0.2375    0.0000 C   0  0  0  0  0  0  0  0  0  0  0  0
    3.8417   -1.0000    0.0000 C   0  0  0  0  0  0  0  0  0  0  0  0
    4.6042   -0.8542    0.0000 C   0  0  0  0  0  0  0  0  0  0  0  0
    7.6250    1.6333    0.0000 N   0  0  0  0  0  0  0  0  0  0  0  0
    7.6792    0.8708    0.0000 C   0  0  0  0  0  0  0  0  0  0  0  0
    5.0542    0.4000    0.0000 C   0  0  0  0  0  0  0  0  0  0  0  0
    6.9917    2.8333    0.0000 S   0  0  0  0  0  0  0  0  0  0  0  0
    8.4250    0.6833    0.0000 N   0  0  0  0  0  0  0  0  0  0  0  0
    8.8292    1.3458    0.0000 N   0  0  0  0  0  0  0  0  0  0  0  0
    6.9667    2.0458    0.0000 C   0  0  0  0  0  0  0  0  0  0  0  0
    8.3417    1.9333    0.0000 N   0  0  0  0  0  0  0  0  0  0  0  0
    3.4042   -1.6292    0.0000 N   0  0  0  0  0  0  0  0  0  0  0  0
    5.3250   -1.1292    0.0000 S   0  0  0  0  0  0  0  0  0  0  0  0
    5.7792    0.1333    0.0000 C   0  0  0  0  0  0  0  0  0  0  0  0
    3.7292   -2.3417    0.0000 C   0  0  0  0  0  0  0  0  0  0  0  0
    4.9292    1.1625    0.0000 C   0  0  0  0  0  0  0  0  0  0  0  0
    7.0917    0.3625    0.0000 S   0  0  0  0  0  0  0  0  0  0  0  0
    5.9125   -0.6292    0.0000 C   0  0  0  0  0  0  0  0  0  0  0  0
    3.2875   -2.9750    0.0000 C   0  0  0  0  0  0  0  0  0  0  0  0
    7.8292    2.9000    0.0000 O   0  0  0  0  0  0  0  0  0  0  0  0
    3.0792    0.2125    0.0000 O   0  0  0  0  0  0  0  0  0  0  0  0
    6.3750    0.6333    0.0000 C   0  0  0  0  0  0  0  0  0  0  0  0
    6.2042    2.8458    0.0000 O   0  0  0  0  0  0  0  0  0  0  0  0
    6.9917    3.6042    0.0000 O   0  0  0  0  0  0  0  0  0  0  0  0
    4.5000   -2.4125    0.0000 O   0  0  0  0  0  0  0  0  0  0  0  0
    5.5125    1.6583    0.0000 O   0  0  0  0  0  0  0  0  0  0  0  0
    4.2042    1.4208    0.0000 O   0  0  0  0  0  0  0  0  0  0  0  0
    3.6167   -3.6792    0.0000 C   0  0  0  0  0  0  0  0  0  0  0  0
    2.5167   -2.9042    0.0000 O   0  0  0  0  0  0  0  0  0  0  0  0
    9.0000    2.9583    0.0000 Na  0  0  0  0  0 15  0  0  0  0  0  0
    3.3292    2.1958    0.0000 Na  0  0  0  0  0 15  0  0  0  0  0  0
    4.3667   -3.7417    0.0000 C   0  0  0  0  0  0  0  0  0  0  0  0
    3.1625   -4.3167    0.0000 C   0  0  0  0  0  0  0  0  0  0  0  0
    4.6917   -4.4417    0.0000 C   0  0  0  0  0  0  0  0  0  0  0  0
    3.4917   -5.0167    0.0000 C   0  0  0  0  0  0  0  0  0  0  0  0
    4.2542   -5.0917    0.0000 C   0  0  0  0  0  0  0  0  0  0  0  0
  2  1  1  0
  3  4  1  0
  4  1  1  0
  5  6  1  0
  6 18  1  0
  7  1  1  0
  8 11  1  0
  9  6  2  0
 10  9  1  0
 11  5  1  0
 12  5  1  0
 13  3  1  0
  4 14  1  6
 15  7  2  0
 16 13  1  0
 17  7  1  0
 18 23  1  0
 19 15  1  0
 20 16  1  0
 21  8  1  0
 22  2  2  0
 23 15  1  0
 24  8  2  0
 25  8  2  0
 26 16  2  0
 27 17  1  0
 28 17  2  0
 29 20  1  0
 20 30  1  1
 33 29  2  0
 34 29  1  0
 35 33  1  0
 36 34  2  0
 37 36  1  0
  2  3  1  0
 19 14  1  0
 10 12  2  0
 35 37  2  0
M  CHG  4  21  -1  27  -1  31   1  32   1
M  END
>  <ID>  (907) 


>  <MOLENAME>  (907) 
CEFONICID SODIUM

>  <therap>  (907) 
antibacterial

>  <ref>  (907) 
Antimicrob Agents Chemother 13:784 (1978); 21:344 (1982)

>  <cas#>  (907) 
71420-79-6

>  <source>  (907) 
semisynthetic; SK&F-D-75073-Z

>  <status>  (907) 
USAN, INN, BAN

>  <tradename>  (907) 
MONOCID

>  <SMILES>  (907) 
O=C(O)C1=C(CSc2nnnn2CS(=O)(=O)O)CS[C@@H]2C(NC(=O)[C@H](O)c3ccccc3)C(=O)N12

>  <standardized_failed>  (907) 
False

$$$$

     RDKit          2D

 17 18  0  0  0  0  0  0  0  0999 V2000
    6.3500   -3.5125    0.0000 C   0  0  0  0  0  0  0  0  0  0  0  0
    5.5250   -3.5125    0.0000 C   0  0  0  0  0  0  0  0  0  0  0  0
    6.7542   -4.2292    0.0000 C   0  0  0  0  0  0  0  0  0  0  0  0
    5.1125   -2.7917    0.0000 O   0  0  0  0  0  0  0  0  0  0  0  0
    6.7542   -2.8000    0.0000 C   0  0  0  0  0  0  0  0  0  0  0  0
    7.5792   -4.2292    0.0000 C   0  0  0  0  0  0  0  0  0  0  0  0
    5.1042   -4.2250    0.0000 O   0  0  0  0  0  0  0  0  0  0  0  0
    7.9917   -3.5167    0.0000 C   0  0  0  0  0  0  0  0  0  0  0  0
    6.3375   -4.9417    0.0000 O   0  0  0  0  0  0  0  0  0  0  0  0
    7.5792   -2.8000    0.0000 C   0  0  0  0  0  0  0  0  0  0  0  0
    4.2875   -2.7917    0.0000 C   0  0  0  0  0  0  0  0  0  0  0  0
    8.8167   -3.5167    0.0000 N   0  0  0  0  0  0  0  0  0  0  0  0
    3.8750   -2.0792    0.0000 C   0  0  0  0  0  0  0  0  0  0  0  0
    3.8750   -3.5042    0.0000 C   0  0  0  0  0  0  0  0  0  0  0  0
    3.0500   -2.0875    0.0000 C   0  0  0  0  0  0  0  0  0  0  0  0
    3.0500   -3.5042    0.0000 C   0  0  0  0  0  0  0  0  0  0  0  0
    2.6417   -2.8000    0.0000 C   0  0  0  0  0  0  0  0  0  0  0  0
  2  1  1  0
  3  1  2  0
  4  2  1  0
  5  1  1  0
  6  3  1  0
  7  2  2  0
  8 10  1  0
  9  3  1  0
 10  5  2  0
 11  4  1  0
 12  8  1  0
 13 11  2  0
 14 11  1  0
 15 13  1  0
 16 14  2  0
 17 16  1  0
  8  6  2  0
 17 15  2  0
M  END
>  <ID>  (908) 


>  <MOLENAME>  (908) 
PHENYL AMINOSALICYLATE

>  <therap>  (908) 
antibacterial (tuberculostatic)

>  <ref>  (908) 
Acta Pharmacol Toxicol 11:307 (1955); Dis Chest 42;379 (1962)

>  <cas#>  (908) 
133-11-9

>  <source>  (908) 
synthetic; NSC-40144

>  <status>  (908) 
USAN, INN, BAN

>  <tradename>  (908) 
PHENYPASTEBAMIN

>  <SMILES>  (908) 
Nc1cc(O)c(C(=O)Oc2ccccc2)cc1

>  <standardized_failed>  (908) 
False

$$$$

     RDKit          2D

 43 43  0  0  0  0  0  0  0  0999 V2000
    2.8500   -2.2792    0.0000 S   0  0  0  0  0  0  0  0  0  0  0  0
   10.6000   -3.7042    0.0000 S   0  0  0  0  0  0  0  0  0  0  0  0
    7.2875   -4.9750    0.0000 C   0  0  0  0  0  0  0  0  0  0  0  0
    6.5792   -3.7375    0.0000 C   0  0  0  0  0  0  0  0  0  0  0  0
    6.5750   -4.5542    0.0000 C   0  0  0  0  0  0  0  0  0  0  0  0
    7.9792   -7.0417    0.0000 C   0  0  0  0  0  0  0  0  0  0  0  0
    7.9917   -6.2167    0.0000 C   0  0  0  0  0  0  0  0  0  0  0  0
    8.6875   -7.4625    0.0000 C   0  0  0  0  0  0  0  0  0  0  0  0
    7.2792   -5.8000    0.0000 O   0  0  0  0  0  0  0  0  0  0  0  0
    5.8667   -3.3250    0.0000 O   0  0  0  0  0  0  0  0  0  0  0  0
    5.1542   -3.7375    0.0000 C   0  0  0  0  0  0  0  0  0  0  0  0
    9.4042   -7.0542    0.0000 C   0  0  0  0  0  0  0  0  0  0  0  0
    5.1542   -4.5625    0.0000 O   0  0  0  0  0  0  0  0  0  0  0  0
    8.0042   -4.5667    0.0000 C   0  0  0  0  0  0  0  0  0  0  0  0
    7.3000   -3.3292    0.0000 C   0  0  0  0  0  0  0  0  0  0  0  0
    8.7042   -5.8125    0.0000 O   0  0  0  0  0  0  0  0  0  0  0  0
    8.0125   -3.7417    0.0000 C   0  0  0  0  0  0  0  0  0  0  0  0
    4.4417   -4.9667    0.0000 C   0  0  0  0  0  0  0  0  0  0  0  0
    3.4292   -2.6250    0.0000 O   0  0  0  0  0  0  0  0  0  0  0  0
    2.2667   -1.9417    0.0000 O   0  0  0  0  0  0  0  0  0  0  0  0
   10.0167   -3.3667    0.0000 O   0  0  0  0  0  0  0  0  0  0  0  0
   11.1792   -4.0417    0.0000 O   0  0  0  0  0  0  0  0  0  0  0  0
    9.4167   -6.2292    0.0000 C   0  0  0  0  0  0  0  0  0  0  0  0
    3.7292   -4.5625    0.0000 C   0  0  0  0  0  0  0  0  0  0  0  0
    4.4417   -3.3167    0.0000 C   0  0  0  0  0  0  0  0  0  0  0  0
   10.9292   -3.1167    0.0000 O   0  0  0  0  0  0  0  0  0  0  0  0
    2.5042   -2.8667    0.0000 O   0  0  0  0  0  0  0  0  0  0  0  0
    3.1792   -1.6917    0.0000 O   0  0  0  0  0  0  0  0  0  0  0  0
   10.2542   -4.2917    0.0000 O   0  0  0  0  0  0  0  0  0  0  0  0
    3.7292   -3.7375    0.0000 C   0  0  0  0  0  0  0  0  0  0  0  0
    8.6792   -8.2875    0.0000 N   0  0  0  0  0  0  0  0  0  0  0  0
    7.2625   -7.4500    0.0000 O   0  0  0  0  0  0  0  0  0  0  0  0
    5.8542   -4.9625    0.0000 O   0  0  0  0  0  0  0  0  0  0  0  0
    8.7167   -4.9875    0.0000 N   0  0  0  0  0  0  0  0  0  0  0  0
    7.3042   -2.5042    0.0000 N   0  0  0  0  0  0  0  0  0  0  0  0
    9.6167   -7.8542    0.0000 O   0  0  0  0  0  0  0  0  0  0  0  0
    4.4417   -2.4917    0.0000 N   0  0  0  0  0  0  0  0  0  0  0  0
    3.7292   -6.2042    0.0000 N   0  0  0  0  0  0  0  0  0  0  0  0
   10.2292   -7.0542    0.0000 C   0  0  0  0  0  0  0  0  0  0  0  0
    4.4417   -5.7917    0.0000 C   0  0  0  0  0  0  0  0  0  0  0  0
    9.4292   -4.5792    0.0000 C   0  0  0  0  0  0  0  0  0  0  0  0
    7.9542   -8.6917    0.0000 C   0  0  0  0  0  0  0  0  0  0  0  0
   10.1417   -5.0000    0.0000 C   0  0  0  0  0  0  0  0  0  0  0  0
  4  5  1  0
  5  3  1  0
  6  7  1  0
  7  9  1  0
  8  6  1  0
  3  9  1  6
  4 10  1  6
 11 10  1  1
 12 23  1  0
 13 11  1  0
 14  3  1  0
 15 17  1  0
 16  7  1  0
 17 14  1  0
 18 13  1  0
 19  1  2  0
 20  1  2  0
 21  2  2  0
 22  2  2  0
 23 16  1  0
 24 30  1  0
 25 11  1  0
 26  2  1  0
 27  1  1  0
 28  1  1  0
 29  2  1  0
 30 25  1  0
  8 31  1  6
  6 32  1  1
  5 33  1  1
 14 34  1  1
 15 35  1  1
 12 36  1  0
 25 37  1  1
 38 40  1  0
 12 39  1  1
 40 18  1  0
 41 34  1  0
 42 31  1  0
 43 41  1  0
  4 15  1  0
 12  8  1  0
 18 24  2  0
M  END
>  <ID>  (909) 


>  <MOLENAME>  (909) 
NETILMICIN SULFATE

>  <therap>  (909) 
antibacterial

>  <ref>  (909) 
Drugs (1989), 38(5), 703-56; Chem. Commun. (1976), (6), 206-8; Antimicrob. Agents Chemother. (1976), 9(4), 595-9

>  <cas#>  (909) 
56391-56-1

>  <source>  (909) 
semisynthetic; SCH-20569

>  <status>  (909) 
USP, INN, BAN, JAN

>  <tradename>  (909) 
NETROMYCIN

>  <SMILES>  (909) 
CCN[C@@H]1C[C@H](N)[C@@H](O[C@H]2OC(CN)=CC[C@H]2N)[C@H](O)[C@H]1OC1OC[C@](C)(O)[C@H](NC)[C@H]1O

>  <standardized_failed>  (909) 
False

$$$$

     RDKit          2D

 39 43  0  0  0  0  0  0  0  0999 V2000
    3.5417   -1.5125    0.0000 C   0  0  0  0  0  0  0  0  0  0  0  0
    3.5417   -2.3417    0.0000 C   0  0  0  0  0  0  0  0  0  0  0  0
    2.8292   -2.7542    0.0000 C   0  0  0  0  0  0  0  0  0  0  0  0
    2.8250   -1.1042    0.0000 C   0  0  0  0  0  0  0  0  0  0  0  0
    4.9750   -2.3292    0.0000 C   0  0  0  0  0  0  0  0  0  0  0  0
    4.9667   -1.5000    0.0000 C   0  0  0  0  0  0  0  0  0  0  0  0
    2.1167   -2.3417    0.0000 C   0  0  0  0  0  0  0  0  0  0  0  0
    4.2542   -1.0917    0.0000 C   0  0  0  0  0  0  0  0  0  0  0  0
    4.2625   -2.7500    0.0000 C   0  0  0  0  0  0  0  0  0  0  0  0
    2.1167   -1.5167    0.0000 C   0  0  0  0  0  0  0  0  0  0  0  0
    6.4042   -1.4917    0.0000 C   0  0  0  0  0  0  0  0  0  0  0  0
    5.6917   -2.7417    0.0000 C   0  0  0  0  0  0  0  0  0  0  0  0
    5.6875   -1.0792    0.0000 C   0  0  0  0  0  0  0  0  0  0  0  0
    6.4125   -3.9750    0.0000 C   0  0  0  0  0  0  0  0  0  0  0  0
    6.4125   -4.8000    0.0000 O   0  0  0  0  0  0  0  0  0  0  0  0
    6.4125   -2.3250    0.0000 C   0  0  0  0  0  0  0  0  0  0  0  0
    7.1167   -3.5542    0.0000 C   0  0  0  0  0  0  0  0  0  0  0  0
    7.8375   -4.7917    0.0000 C   0  0  0  0  0  0  0  0  0  0  0  0
    7.8375   -3.9667    0.0000 C   0  0  0  0  0  0  0  0  0  0  0  0
    7.1167   -5.2042    0.0000 C   0  0  0  0  0  0  0  0  0  0  0  0
    7.1167   -1.0792    0.0000 C   0  0  0  0  0  0  0  0  0  0  0  0
    5.6917   -3.5667    0.0000 O   0  0  0  0  0  0  0  0  0  0  0  0
    2.8167   -0.2792    0.0000 O   0  0  0  0  0  0  0  0  0  0  0  0
    2.8292   -3.5792    0.0000 O   0  0  0  0  0  0  0  0  0  0  0  0
    1.4000   -2.7625    0.0000 C   0  0  0  0  0  0  0  0  0  0  0  0
    7.8375   -1.4875    0.0000 O   0  0  0  0  0  0  0  0  0  0  0  0
    4.2417   -0.2667    0.0000 O   0  0  0  0  0  0  0  0  0  0  0  0
    4.2667   -3.5750    0.0000 O   0  0  0  0  0  0  0  0  0  0  0  0
    7.1167   -1.9042    0.0000 O   0  0  0  0  0  0  0  0  0  0  0  0
    8.5500   -3.5542    0.0000 N   0  0  0  0  0  0  0  0  0  0  0  0
    8.5542   -5.2042    0.0000 O   0  0  0  0  0  0  0  0  0  0  0  0
    1.4000   -1.1042    0.0000 C   0  0  0  0  0  0  0  0  0  0  0  0
    1.4042   -3.5875    0.0000 O   0  0  0  0  0  0  0  0  0  0  0  0
    7.1167   -0.2542    0.0000 C   0  0  0  0  0  0  0  0  0  0  0  0
    7.8292    0.1625    0.0000 O   0  0  0  0  0  0  0  0  0  0  0  0
    7.1167   -6.0292    0.0000 C   0  0  0  0  0  0  0  0  0  0  0  0
    0.6875   -1.5250    0.0000 C   0  0  0  0  0  0  0  0  0  0  0  0
    0.6875   -2.3500    0.0000 C   0  0  0  0  0  0  0  0  0  0  0  0
    0.6917   -4.0042    0.0000 C   0  0  0  0  0  0  0  0  0  0  0  0
  2  1  2  0
  3  2  1  0
  4  1  1  0
  5  6  1  0
  6  8  2  0
  7 10  2  0
  8  1  1  0
  9  2  1  0
 10  4  1  0
 11 13  1  0
 12  5  1  0
 13  6  1  0
 14 22  1  0
 15 14  1  0
 16 11  1  0
 17 14  1  0
 18 19  1  0
 19 17  1  0
 20 15  1  0
 11 21  1  0
 12 22  1  6
 23  4  2  0
 24  3  2  0
 25  7  1  0
 26 21  2  0
 27  8  1  0
 28  9  1  0
 11 29  1  6
 19 30  1  6
 18 31  1  6
 32 10  1  0
 33 25  1  0
 34 21  1  0
 35 34  1  0
 20 36  1  6
 37 32  2  0
 38 37  1  0
 39 33  1  0
  5  9  2  0
  7  3  1  0
 16 12  1  0
 25 38  2  0
 18 20  1  0
M  END
>  <ID>  (910) 


>  <MOLENAME>  (910) 
DOXORUBICIN

>  <therap>  (910) 
antineoplastic

>  <ref>  (910) 
Eur. J. Pharmacol. (2001), 415(1), 1-11; Tet. Lett. (1969), (13), 1007-10; Cancer Chemother. Rep. (1969), 53(1), 33-7

>  <cas#>  (910) 
23214-92-8

>  <source>  (910) 
semisynthetic; NSC-123127

>  <status>  (910) 
USAN, INN, BAN

>  <tradename>  (910) 
RUBEX

>  <SMILES>  (910) 
COc1cccc2c1C(=O)c1c(C2=O)c(O)c2C[C@@](O)(C(=O)CO)C[C@H](OC3C[C@H](N)[C@H](O)[C@H](C)O3)c2c1O

>  <standardized_failed>  (910) 
False

$$$$

     RDKit          2D

 34 36  0  0  0  0  0  0  0  0999 V2000
    3.5417   -2.8750    0.0000 C   0  0  0  0  0  0  0  0  0  0  0  0
    3.5417   -4.5250    0.0000 C   0  0  0  0  0  0  0  0  0  0  0  0
    2.8292   -3.2875    0.0000 C   0  0  0  0  0  0  0  0  0  0  0  0
    4.2542   -3.2875    0.0000 C   0  0  0  0  0  0  0  0  0  0  0  0
    2.8292   -4.1125    0.0000 C   0  0  0  0  0  0  0  0  0  0  0  0
    3.5417   -2.0500    0.0000 C   0  0  0  0  0  0  0  0  0  0  0  0
    4.2542   -1.6375    0.0000 C   0  0  0  0  0  0  0  0  0  0  0  0
    2.2917   -5.3375    0.0000 N   0  0  0  0  0  0  0  0  0  0  0  0
    4.9667   -2.8750    0.0000 N   0  0  0  0  0  0  0  0  0  0  0  0
    3.3667   -5.3375    0.0000 C   0  0  0  0  0  0  0  0  0  0  0  0
    4.2417   -0.8125    0.0000 C   0  0  0  0  0  0  0  0  0  0  0  0
    2.1167   -4.5250    0.0000 C   0  0  0  0  0  0  0  0  0  0  0  0
    4.2542   -4.1125    0.0000 C   0  0  0  0  0  0  0  0  0  0  0  0
    4.9667   -2.0500    0.0000 C   0  0  0  0  0  0  0  0  0  0  0  0
    4.9542   -0.3917    0.0000 N   0  0  0  0  0  0  0  0  0  0  0  0
    8.2417   -4.4542    0.0000 C   0  0  0  0  0  0  0  0  0  0  0  0
    8.2417   -3.1250    0.0000 C   0  0  0  0  0  0  0  0  0  0  0  0
    7.6667   -3.4625    0.0000 C   0  0  0  0  0  0  0  0  0  0  0  0
    7.6667   -4.1250    0.0000 C   0  0  0  0  0  0  0  0  0  0  0  0
    3.5167   -0.4000    0.0000 O   0  0  0  0  0  0  0  0  0  0  0  0
    8.8167   -3.4625    0.0000 O   0  0  0  0  0  0  0  0  0  0  0  0
    8.2417   -5.1250    0.0000 O   0  0  0  0  0  0  0  0  0  0  0  0
    2.1167   -2.8750    0.0000 C   0  0  0  0  0  0  0  0  0  0  0  0
    1.7708   -5.9792    0.0000 C   0  0  0  0  0  0  0  0  0  0  0  0
    5.6917   -3.3000    0.0000 C   0  0  0  0  0  0  0  0  0  0  0  0
    8.2417   -2.4625    0.0000 O   0  0  0  0  0  0  0  0  0  0  0  0
    8.8167   -4.1250    0.0000 O   0  0  0  0  0  0  0  0  0  0  0  0
    1.3917   -4.1125    0.0000 C   0  0  0  0  0  0  0  0  0  0  0  0
    5.6667   -0.8000    0.0000 C   0  0  0  0  0  0  0  0  0  0  0  0
    1.3917   -3.2875    0.0000 C   0  0  0  0  0  0  0  0  0  0  0  0
    6.4292   -1.9375    0.0000 O   0  0  0  0  0  0  0  0  0  0  0  0
    5.6792   -1.6292    0.0000 C   0  0  0  0  0  0  0  0  0  0  0  0
    6.3792   -0.3875    0.0000 C   0  0  0  0  0  0  0  0  0  0  0  0
    7.1042   -0.8000    0.0000 C   0  0  0  0  0  0  0  0  0  0  0  0
  2  5  1  0
  3  1  1  0
  4  1  1  0
  5  3  2  0
  6  1  2  0
  7  6  1  0
  8 12  1  0
  4  9  1  0
 10  2  2  0
  7 11  1  1
 12  5  1  0
  4 13  1  6
 14  7  1  0
 15 11  1  0
 17 18  1  0
 18 19  2  0
 19 16  1  0
 20 11  2  0
 21 17  2  0
 22 16  2  0
 23  3  1  0
 24  8  1  0
 25  9  1  0
 26 17  1  0
 27 16  1  0
 28 30  1  0
 29 15  1  0
 30 23  2  0
 31 32  1  0
 29 32  1  1
 33 29  1  0
 34 33  1  0
  2 13  1  0
 14  9  1  0
 12 28  2  0
 10  8  1  0
M  END
>  <ID>  (911) 


>  <MOLENAME>  (911) 
METHYSERGIDE MALEATE

>  <therap>  (911) 
vasoconstrictor, antimigraine

>  <ref>  (911) 
Eur. J. Pharmacol. (2006), 535(1-3), 234-242; J. Pharm. Pharmacol. (1970), 22(8), 637-8; Psychopharmacologia (1967), 11(1), 65-78

>  <cas#>  (911) 
129-49-7

>  <source>  (911) 
semisynthetic

>  <status>  (911) 
USP

>  <tradename>  (911) 
SANSERT

>  <SMILES>  (911) 
CC[C@@H](CO)NC(=O)[C@@H]1C=C2c3c4c(cn(C)c4ccc3)C[C@H]2N(C)C1

>  <standardized_failed>  (911) 
False

$$$$

     RDKit          2D

 21 21  0  0  0  0  0  0  0  0999 V2000
    3.0792   -1.4417    0.0000 S   0  0  0  0  0  0  0  0  0  0  0  0
    6.7792   -3.5792    0.0000 C   0  0  0  0  0  0  0  0  0  0  0  0
    6.3667   -2.8667    0.0000 N   0  0  0  0  0  0  0  0  0  0  0  0
    6.7792   -2.1542    0.0000 C   0  0  0  0  0  0  0  0  0  0  0  0
    3.9042   -1.4417    0.0000 C   0  0  0  0  0  0  0  0  0  0  0  0
    6.3667   -4.2917    0.0000 C   0  0  0  0  0  0  0  0  0  0  0  0
    6.3667   -1.4417    0.0000 C   0  0  0  0  0  0  0  0  0  0  0  0
    2.2542   -1.4417    0.0000 O   0  0  0  0  0  0  0  0  0  0  0  0
    2.6625   -0.7292    0.0000 O   0  0  0  0  0  0  0  0  0  0  0  0
    5.5500   -1.4417    0.0000 C   0  0  0  0  0  0  0  0  0  0  0  0
    7.6042   -3.5792    0.0000 O   0  0  0  0  0  0  0  0  0  0  0  0
    4.3125   -2.1542    0.0000 C   0  0  0  0  0  0  0  0  0  0  0  0
    4.3125   -0.7292    0.0000 C   0  0  0  0  0  0  0  0  0  0  0  0
    5.1375   -0.7292    0.0000 C   0  0  0  0  0  0  0  0  0  0  0  0
    5.1375   -2.1542    0.0000 C   0  0  0  0  0  0  0  0  0  0  0  0
    6.7792   -5.0042    0.0000 Cl  0  0  0  0  0  0  0  0  0  0  0  0
    5.5417   -4.2917    0.0000 Cl  0  0  0  0  0  0  0  0  0  0  0  0
    3.0750   -2.2667    0.0000 C   0  0  0  0  0  0  0  0  0  0  0  0
    6.7792   -0.7250    0.0000 O   0  0  0  0  0  0  0  0  0  0  0  0
    7.6042   -2.1542    0.0000 C   0  0  0  0  0  0  0  0  0  0  0  0
    8.0167   -1.4375    0.0000 F   0  0  0  0  0  0  0  0  0  0  0  0
  2  3  1  0
  4  3  1  0
  7  4  1  0
  5  1  1  0
  6  2  1  0
  7 10  1  0
  8  1  2  0
  9  1  2  0
 10 14  1  0
 11  2  2  0
 12  5  2  0
 13  5  1  0
 14 13  2  0
 15 12  1  0
 16  6  1  0
 17  6  1  0
 18  1  1  0
  7 19  1  0
  4 20  1  6
 21 20  1  0
 10 15  2  0
M  END
>  <ID>  (912) 


>  <MOLENAME>  (912) 
FLORFENICOL

>  <therap>  (912) 
antibacterial

>  <ref>  (912) 
FEMS Microbiol. Rev. (2004), 28(5), 519-542; Antimicrob. Agents Chemother. (1980), 18(2), 311-16; Naturwissenschaften (1980), 67(2), 89-90

>  <cas#>  (912) 
76639-94-6

>  <source>  (912) 
synthetic; SCH-25298

>  <status>  (912) 
USAN, INN, BAN

>  <tradename>  (912) 
NUFLOR

>  <SMILES>  (912) 
CS(=O)(=O)c1ccc(C(O)[C@H](CF)NC(=O)C(Cl)Cl)cc1

>  <standardized_failed>  (912) 
False

$$$$

     RDKit          2D

 31 32  0  0  0  0  0  0  0  0999 V2000
    3.1250   -3.2917    0.0000 N   0  0  0  0  0  0  0  0  0  0  0  0
    3.8500   -3.7042    0.0000 C   0  0  0  0  0  0  0  0  0  0  0  0
    3.1292   -4.9542    0.0000 S   0  0  0  0  0  0  0  0  0  0  0  0
    3.8542   -4.5417    0.0000 C   0  0  0  0  0  0  0  0  0  0  0  0
    2.4125   -3.7167    0.0000 C   0  0  0  0  0  0  0  0  0  0  0  0
    2.4167   -4.5500    0.0000 C   0  0  0  0  0  0  0  0  0  0  0  0
    4.5667   -3.2917    0.0000 C   0  0  0  0  0  0  0  0  0  0  0  0
    5.2875   -3.7000    0.0000 C   0  0  0  0  0  0  0  0  0  0  0  0
    7.5042   -1.7542    0.0000 C   0  0  0  0  0  0  0  0  0  0  0  0
    8.6667   -1.0792    0.0000 C   0  0  0  0  0  0  0  0  0  0  0  0
    8.0875   -2.0917    0.0000 C   0  0  0  0  0  0  0  0  0  0  0  0
    8.6667   -1.7542    0.0000 C   0  0  0  0  0  0  0  0  0  0  0  0
    6.0000   -3.2792    0.0000 C   0  0  0  0  0  0  0  0  0  0  0  0
    4.5750   -4.9542    0.0000 C   0  0  0  0  0  0  0  0  0  0  0  0
    5.2917   -4.5292    0.0000 C   0  0  0  0  0  0  0  0  0  0  0  0
    6.9167   -2.0917    0.0000 O   0  0  0  0  0  0  0  0  0  0  0  0
    9.2542   -0.7417    0.0000 O   0  0  0  0  0  0  0  0  0  0  0  0
    5.9917   -2.4542    0.0000 O   0  0  0  0  0  0  0  0  0  0  0  0
    3.1167   -2.4667    0.0000 C   0  0  0  0  0  0  0  0  0  0  0  0
    3.8292   -2.0500    0.0000 C   0  0  0  0  0  0  0  0  0  0  0  0
    4.5417   -0.8125    0.0000 N   0  0  0  0  0  0  0  0  0  0  0  0
    8.0917   -0.7417    0.0000 O   0  0  0  0  0  0  0  0  0  0  0  0
    7.5042   -1.0792    0.0000 O   0  0  0  0  0  0  0  0  0  0  0  0
    1.6917   -3.3042    0.0000 C   0  0  0  0  0  0  0  0  0  0  0  0
    1.6917   -4.9542    0.0000 C   0  0  0  0  0  0  0  0  0  0  0  0
    3.8292   -1.2250    0.0000 C   0  0  0  0  0  0  0  0  0  0  0  0
    6.7167   -3.6875    0.0000 C   0  0  0  0  0  0  0  0  0  0  0  0
    4.5292    0.0333    0.0000 C   0  0  0  0  0  0  0  0  0  0  0  0
    5.5250   -0.8042    0.0000 C   0  0  0  0  0  0  0  0  0  0  0  0
    0.9792   -3.7167    0.0000 C   0  0  0  0  0  0  0  0  0  0  0  0
    0.9792   -4.5417    0.0000 C   0  0  0  0  0  0  0  0  0  0  0  0
  2  1  1  0
  3  6  1  0
  4  2  2  0
  5  1  1  0
  6  5  2  0
  7  2  1  0
  8  7  2  0
 10 12  1  0
 11  9  1  0
 12 11  2  0
 13  8  1  0
 14  4  1  0
 15  8  1  0
 16  9  2  0
 17 10  2  0
 18 13  2  0
 19  1  1  0
 20 19  1  0
 21 26  1  0
 22 10  1  0
 23  9  1  0
 24  5  1  0
 25  6  1  0
 26 20  1  0
 27 13  1  0
 28 21  1  0
 29 21  1  0
 30 24  2  0
 31 25  2  0
  3  4  1  0
 31 30  1  0
 15 14  2  0
M  END
>  <ID>  (913) 


>  <MOLENAME>  (913) 
ACEPROMAZINE MALEATE

>  <therap>  (913) 
sedative

>  <ref>  (913) 
J Toxicol Environ Health 7:745 (1981); Can Vet J 35:458 (1994)

>  <cas#>  (913) 
3598-37-6

>  <source>  (913) 
synthetic; 1522-CB

>  <status>  (913) 
USP, INN, BAN

>  <tradename>  (913) 
ATRAVET

>  <SMILES>  (913) 
CC(=O)c1cc2c(cc1)Sc1c(cccc1)N2CCCN(C)C

>  <standardized_failed>  (913) 
False

$$$$

     RDKit          2D

 23 26  0  0  0  0  0  0  0  0999 V2000
    1.7292   -1.6417    0.0000 C   0  0  0  0  0  0  0  0  0  0  0  0
    2.4375   -1.2292    0.0000 C   0  0  0  0  0  0  0  0  0  0  0  0
    2.4292   -0.4125    0.0000 C   0  0  0  0  0  0  0  0  0  0  0  0
    1.0125   -1.2375    0.0000 C   0  0  0  0  0  0  0  0  0  0  0  0
    3.1417   -0.0000    0.0000 C   0  0  0  0  0  0  0  0  0  0  0  0
   -0.4125   -1.2417    0.0000 N   0  0  0  0  0  0  0  0  0  0  0  0
    3.8542   -0.4042    0.0000 C   0  0  0  0  0  0  0  0  0  0  0  0
    3.1500   -1.6417    0.0000 C   0  0  0  0  0  0  0  0  0  0  0  0
    3.8542   -1.2292    0.0000 C   0  0  0  0  0  0  0  0  0  0  0  0
    2.8375   -1.1250    0.0000 C   0  0  0  0  0  0  0  0  0  0  0  0
    1.7292   -2.4625    0.0000 C   0  0  0  0  0  0  0  0  0  0  0  0
    0.3000   -1.6500    0.0000 C   0  0  0  0  0  0  0  0  0  0  0  0
    2.4375   -2.0542    0.0000 O   0  0  0  0  0  0  0  0  0  0  0  0
   -1.1250   -1.6542    0.0000 C   0  0  0  0  0  0  0  0  0  0  0  0
   -0.4208   -0.4167    0.0000 C   0  0  0  0  0  0  0  0  0  0  0  0
    2.4417   -2.8667    0.0000 C   0  0  0  0  0  0  0  0  0  0  0  0
    1.0042   -2.8792    0.0000 C   0  0  0  0  0  0  0  0  0  0  0  0
   -1.1333   -0.0042    0.0000 C   0  0  0  0  0  0  0  0  0  0  0  0
   -1.8458   -1.2417    0.0000 C   0  0  0  0  0  0  0  0  0  0  0  0
    1.0042   -3.7042    0.0000 C   0  0  0  0  0  0  0  0  0  0  0  0
    2.4417   -3.6917    0.0000 C   0  0  0  0  0  0  0  0  0  0  0  0
    1.7250   -4.1167    0.0000 C   0  0  0  0  0  0  0  0  0  0  0  0
   -1.8458   -0.4167    0.0000 C   0  0  0  0  0  0  0  0  0  0  0  0
  2  1  1  0
  3  2  1  0
  4  1  1  0
  5  3  1  0
  6 12  1  0
  7  9  1  0
  8  2  1  0
  9  8  1  0
 10  3  1  0
 11  1  1  0
 12  4  1  0
 13  1  1  0
 14  6  1  0
 15  6  1  0
 16 11  2  0
 17 11  1  0
 18 15  1  0
 19 14  1  0
 20 17  2  0
 21 16  1  0
 22 20  1  0
 23 18  1  0
  9 10  1  0
 21 22  2  0
  7  5  2  0
 19 23  1  0
M  END
>  <ID>  (914) 


>  <MOLENAME>  (914) 
BIPERIDEN

>  <therap>  (914) 
anticholinergic, antiparkinsonian

>  <ref>  (914) 
Toxicol Appl Pharmacol 2:379 (1960)

>  <cas#>  (914) 
514-65-8

>  <source>  (914) 
synthetic

>  <status>  (914) 
USP, INN, BAN, JAN

>  <tradename>  (914) 
AKINETON

>  <SMILES>  (914) 
OC(CCN1CCCCC1)(c1ccccc1)C1CC2C=CC1C2

>  <standardized_failed>  (914) 
False

$$$$

     RDKit          2D

 27 27  0  0  0  0  0  0  0  0999 V2000
    8.3625   -0.6542    0.0000 C   0  0  0  0  0  0  0  0  0  0  0  0
    9.5417    0.0208    0.0000 C   0  0  0  0  0  0  0  0  0  0  0  0
    8.9542   -0.9917    0.0000 C   0  0  0  0  0  0  0  0  0  0  0  0
    9.5417   -0.6542    0.0000 C   0  0  0  0  0  0  0  0  0  0  0  0
    4.2417   -2.4375    0.0000 C   0  0  0  0  0  0  0  0  0  0  0  0
    4.9542   -2.8500    0.0000 C   0  0  0  0  0  0  0  0  0  0  0  0
    3.5292   -1.2000    0.0000 N   0  0  0  0  0  0  0  0  0  0  0  0
    3.5292   -2.8500    0.0000 C   0  0  0  0  0  0  0  0  0  0  0  0
    4.2417   -1.6125    0.0000 C   0  0  0  0  0  0  0  0  0  0  0  0
    7.7750   -0.9917    0.0000 O   0  0  0  0  0  0  0  0  0  0  0  0
    8.9542    0.3708    0.0000 O   0  0  0  0  0  0  0  0  0  0  0  0
    2.8125   -2.4375    0.0000 C   0  0  0  0  0  0  0  0  0  0  0  0
    3.5292   -3.6750    0.0000 C   0  0  0  0  0  0  0  0  0  0  0  0
    5.6667   -2.4375    0.0000 C   0  0  0  0  0  0  0  0  0  0  0  0
    6.3792   -2.8500    0.0000 N   0  0  0  0  0  0  0  0  0  0  0  0
    2.1000   -3.6750    0.0000 C   0  0  0  0  0  0  0  0  0  0  0  0
   10.1292    0.3708    0.0000 O   0  0  0  0  0  0  0  0  0  0  0  0
    8.3625    0.0208    0.0000 O   0  0  0  0  0  0  0  0  0  0  0  0
    2.1000   -2.8500    0.0000 C   0  0  0  0  0  0  0  0  0  0  0  0
    2.8125   -4.0875    0.0000 C   0  0  0  0  0  0  0  0  0  0  0  0
    1.3875   -4.0875    0.0000 Cl  0  0  0  0  0  0  0  0  0  0  0  0
    3.5292   -0.3750    0.0000 C   0  0  0  0  0  0  0  0  0  0  0  0
    4.9542   -1.2000    0.0000 C   0  0  0  0  0  0  0  0  0  0  0  0
    6.3792   -3.6750    0.0000 C   0  0  0  0  0  0  0  0  0  0  0  0
    7.0917   -2.4375    0.0000 C   0  0  0  0  0  0  0  0  0  0  0  0
    4.2500    0.0375    0.0000 C   0  0  0  0  0  0  0  0  0  0  0  0
    4.9667   -0.3792    0.0000 C   0  0  0  0  0  0  0  0  0  0  0  0
  2  4  1  0
  3  1  1  0
  4  3  2  0
  5  6  1  1
  7  9  2  0
  8  5  1  0
  5  9  1  0
 10  1  2  0
 11  2  2  0
 12  8  2  0
 13  8  1  0
 14  6  1  0
 15 14  1  0
 16 20  1  0
 17  2  1  0
 18  1  1  0
 19 12  1  0
 20 13  2  0
 21 16  1  0
 22  7  1  0
 23  9  1  0
 24 15  1  0
 25 15  1  0
 26 27  1  0
 27 23  2  0
 19 16  2  0
 26 22  2  0
M  END
>  <ID>  (915) 


>  <MOLENAME>  (915) 
DEXCHLORPHENIRAMINE MALEATE

>  <therap>  (915) 
antihistamine

>  <ref>  (915) 
Life Sci. (1978), 22(13-14-15), 1179-87; J. Med. Chem. (1969), 12(2), 266-70; Nature (1959), 183, 734-5

>  <cas#>  (915) 
2438-32-6

>  <source>  (915) 
synthetic

>  <status>  (915) 
USP, INN, BAN, JAN

>  <tradename>  (915) 
POLARAMINE

>  <SMILES>  (915) 
CN(C)CC[C@@H](c1ccc(Cl)cc1)c1ncccc1

>  <standardized_failed>  (915) 
False

$$$$

     RDKit          2D

 21 22  0  0  0  0  0  0  0  0999 V2000
    2.1042   -2.0000    0.0000 C   0  0  0  0  0  0  0  0  0  0  0  0
    2.8167   -1.5875    0.0000 N   0  0  0  0  0  0  0  0  0  0  0  0
    6.3792   -2.8250    0.0000 C   0  0  0  0  0  0  0  0  0  0  0  0
    7.0917   -3.2375    0.0000 C   0  0  0  0  0  0  0  0  0  0  0  0
    1.3917   -1.5917    0.0000 C   0  0  0  0  0  0  0  0  0  0  0  0
    5.6667   -3.2375    0.0000 O   0  0  0  0  0  0  0  0  0  0  0  0
    3.5292   -2.0000    0.0000 C   0  0  0  0  0  0  0  0  0  0  0  0
    7.8042   -2.8250    0.0000 O   0  0  0  0  0  0  0  0  0  0  0  0
    2.1042   -2.8250    0.0000 O   0  0  0  0  0  0  0  0  0  0  0  0
    7.2667   -4.0417    0.0000 C   0  0  0  0  0  0  0  0  0  0  0  0
    6.3792   -2.0000    0.0000 O   0  0  0  0  0  0  0  0  0  0  0  0
    8.4167   -3.3667    0.0000 C   0  0  0  0  0  0  0  0  0  0  0  0
    8.0917   -4.1250    0.0000 C   0  0  0  0  0  0  0  0  0  0  0  0
    3.5292   -2.8250    0.0000 C   0  0  0  0  0  0  0  0  0  0  0  0
    4.2417   -1.5792    0.0000 C   0  0  0  0  0  0  0  0  0  0  0  0
    4.9542   -2.8250    0.0000 C   0  0  0  0  0  0  0  0  0  0  0  0
    0.6792   -2.0042    0.0000 Cl  0  0  0  0  0  0  0  0  0  0  0  0
    1.3875   -0.7667    0.0000 Cl  0  0  0  0  0  0  0  0  0  0  0  0
    4.9542   -1.9917    0.0000 C   0  0  0  0  0  0  0  0  0  0  0  0
    4.2417   -3.2375    0.0000 C   0  0  0  0  0  0  0  0  0  0  0  0
    2.8125   -0.7625    0.0000 C   0  0  0  0  0  0  0  0  0  0  0  0
  2  1  1  0
  3  6  1  0
  4  3  1  0
  5  1  1  0
  6 16  1  0
  7  2  1  0
  8  4  1  0
  9  1  2  0
 10  4  2  0
 11  3  2  0
 12  8  1  0
 13 10  1  0
 14  7  2  0
 15  7  1  0
 16 19  1  0
 17  5  1  0
 18  5  1  0
 19 15  2  0
 20 14  1  0
 21  2  1  0
 16 20  2  0
 12 13  2  0
M  END
>  <ID>  (916) 


>  <MOLENAME>  (916) 
DILOXANIDE FUROATE

>  <therap>  (916) 
amoebicide

>  <ref>  (916) 
Ann. Biochem. Exp. Med. (1960), 20, 441-8; J. Antimicrob. Chemother. (1980), 6(5), 577-93

>  <cas#>  (916) 
3736-81-0

>  <source>  (916) 
synthetic

>  <status>  (916) 
USP

>  <tradename>  (916) 
nan

>  <SMILES>  (916) 
CN(C(=O)C(Cl)Cl)c1ccc(OC(=O)c2ccco2)cc1

>  <standardized_failed>  (916) 
False

$$$$

     RDKit          2D

 13 10  0  0  0  0  0  0  0  0999 V2000
    2.8042   -1.7167    0.0000 C   0  0  0  0  0  0  0  0  0  0  0  0
    1.9792   -1.7125    0.0000 P   0  0  0  0  0  0  0  0  0  0  0  0
    3.6292   -1.7167    0.0000 P   0  0  0  0  0  0  0  0  0  0  0  0
    1.5667   -2.4250    0.0000 O   0  0  0  0  0  0  0  0  0  0  0  0
    4.0417   -2.4292    0.0000 O   0  0  0  0  0  0  0  0  0  0  0  0
    1.1542   -1.7125    0.0000 O   0  0  0  0  0  0  0  0  0  0  0  0
    4.4542   -1.7167    0.0000 O   0  0  0  0  0  0  0  0  0  0  0  0
    2.8042   -0.8917    0.0000 O   0  0  0  0  0  0  0  0  0  0  0  0
    3.9292   -0.9042    0.0000 O   0  0  0  0  0  0  0  0  0  0  0  0
    1.5667   -0.9917    0.0000 O   0  0  0  0  0  0  0  0  0  0  0  0
    2.8042   -2.5417    0.0000 C   0  0  0  0  0  0  0  0  0  0  0  0
    5.2125   -2.9667    0.0000 Na  0  0  0  0  0 15  0  0  0  0  0  0
    0.2792   -2.9667    0.0000 Na  0  0  0  0  0 15  0  0  0  0  0  0
  2  1  1  0
  3  1  1  0
  4  2  1  0
  5  3  1  0
  6  2  2  0
  7  3  2  0
  8  1  1  0
  9  3  1  0
 10  2  1  0
 11  1  1  0
M  CHG  4   4  -1   5  -1  12   1  13   1
M  END
>  <ID>  (917) 


>  <MOLENAME>  (917) 
ETIDRONATE DISODIUM

>  <therap>  (917) 
bone resorption inhibitor

>  <ref>  (917) 
Drugs Today (1978), 14(3), 101-7; Eur. J. Clin. Invest. (1971), 1(5), 336-44; Science (1969), 165(3899), 1264-6

>  <cas#>  (917) 
7414-83-7

>  <source>  (917) 
synthetic

>  <status>  (917) 
USP, BAN, JAN

>  <tradename>  (917) 
DIDRONEL

>  <SMILES>  (917) 
CC(O)(P(=O)(O)O)P(=O)(O)O

>  <standardized_failed>  (917) 
False

$$$$

     RDKit          2D

 24 24  0  0  0  0  0  0  0  0999 V2000
    3.7000   -1.3667    0.0000 N   0  0  0  0  0  0  0  0  0  0  0  0
    2.2792   -2.1917    0.0000 O   0  0  0  0  0  0  0  0  0  0  0  0
    8.6833   -2.6167    0.0000 C   0  0  0  0  0  0  0  0  0  0  0  0
    7.9708   -2.2042    0.0000 C   0  0  0  0  0  0  0  0  0  0  0  0
    3.7000   -2.1917    0.0000 C   0  0  0  0  0  0  0  0  0  0  0  0
    2.9875   -0.9542    0.0000 C   0  0  0  0  0  0  0  0  0  0  0  0
    4.4125   -0.9625    0.0000 C   0  0  0  0  0  0  0  0  0  0  0  0
    2.2792   -1.3667    0.0000 C   0  0  0  0  0  0  0  0  0  0  0  0
    2.9875   -2.6042    0.0000 C   0  0  0  0  0  0  0  0  0  0  0  0
    7.9667   -1.3750    0.0000 C   0  0  0  0  0  0  0  0  0  0  0  0
    7.2542   -2.6125    0.0000 C   0  0  0  0  0  0  0  0  0  0  0  0
    6.5500   -1.3792    0.0000 C   0  0  0  0  0  0  0  0  0  0  0  0
    5.8375   -0.9667    0.0000 C   0  0  0  0  0  0  0  0  0  0  0  0
    5.1250   -1.3750    0.0000 C   0  0  0  0  0  0  0  0  0  0  0  0
    7.2583   -0.9667    0.0000 C   0  0  0  0  0  0  0  0  0  0  0  0
    6.5458   -2.2000    0.0000 C   0  0  0  0  0  0  0  0  0  0  0  0
   10.2417   -0.3417    0.0000 Cl  0  0  0  0  0  0  0  0  0  0  0  0
    9.4000   -2.2042    0.0000 C   0  0  0  0  0  0  0  0  0  0  0  0
    9.3917   -3.0292    0.0000 C   0  0  0  0  0  0  0  0  0  0  0  0
    8.6833   -3.4417    0.0000 C   0  0  0  0  0  0  0  0  0  0  0  0
    2.9875   -3.4292    0.0000 C   0  0  0  0  0  0  0  0  0  0  0  0
    1.5625   -0.9583    0.0000 C   0  0  0  0  0  0  0  0  0  0  0  0
    5.1208   -2.2000    0.0000 C   0  0  0  0  0  0  0  0  0  0  0  0
   10.1125   -2.6167    0.0000 C   0  0  0  0  0  0  0  0  0  0  0  0
  2  8  1  0
  3  4  1  0
  4 11  2  0
  5  1  1  0
  6  1  1  0
  7  1  1  0
  8  6  1  0
  9  5  1  0
 10 15  2  0
 11 16  1  0
 12 13  1  0
 13 14  1  0
 14  7  1  0
 15 12  1  0
 16 12  2  0
 18  3  1  0
 19  3  1  0
 20  3  1  0
  9 21  1  6
  8 22  1  6
 23 14  1  0
 24 18  1  0
  9  2  1  0
 10  4  1  0
M  END
>  <ID>  (918) 


>  <MOLENAME>  (918) 
AMOROLFINE HYDROCHLORIDE

>  <therap>  (918) 
antimycotic

>  <ref>  (918) 
Clin Exp Dermatol 17 Suppl 1:1 (1992); Drugs 49:103 (1995)

>  <cas#>  (918) 
78613-38-4, 78613-35-1(base)

>  <source>  (918) 
synthetic; RO-14-4767

>  <status>  (918) 
USAN, INN, BAN, JAN

>  <tradename>  (918) 
LOCERYL

>  <SMILES>  (918) 
CCC(C)(C)c1ccc(CC(C)CN2C[C@H](C)O[C@H](C)C2)cc1

>  <standardized_failed>  (918) 
False

$$$$

     RDKit          2D

 27 30  0  0  0  0  0  0  0  0999 V2000
    6.3500   -2.4542    0.0000 C   0  0  0  0  0  0  0  0  0  0  0  0
    7.1292   -2.2125    0.0000 C   0  0  0  0  0  0  0  0  0  0  0  0
    6.3417   -3.2792    0.0000 C   0  0  0  0  0  0  0  0  0  0  0  0
    4.1917   -4.5042    0.0000 C   0  0  0  0  0  0  0  0  0  0  0  0
    5.6167   -3.6875    0.0000 C   0  0  0  0  0  0  0  0  0  0  0  0
    4.9125   -3.2667    0.0000 C   0  0  0  0  0  0  0  0  0  0  0  0
    4.2000   -3.6792    0.0000 C   0  0  0  0  0  0  0  0  0  0  0  0
    8.0250   -2.4667    0.0000 C   0  0  0  0  0  0  0  0  0  0  0  0
    3.4875   -4.9125    0.0000 C   0  0  0  0  0  0  0  0  0  0  0  0
    5.6417   -2.0375    0.0000 C   0  0  0  0  0  0  0  0  0  0  0  0
    7.3917   -1.4292    0.0000 O   0  0  0  0  0  0  0  0  0  0  0  0
    4.9167   -2.4417    0.0000 C   0  0  0  0  0  0  0  0  0  0  0  0
    7.1167   -3.5417    0.0000 C   0  0  0  0  0  0  0  0  0  0  0  0
    5.6250   -4.5042    0.0000 C   0  0  0  0  0  0  0  0  0  0  0  0
    8.9167   -2.7042    0.0000 C   0  0  0  0  0  0  0  0  0  0  0  0
    3.4875   -3.2625    0.0000 C   0  0  0  0  0  0  0  0  0  0  0  0
    8.2042   -1.2667    0.0000 C   0  0  0  0  0  0  0  0  0  0  0  0
    7.6042   -2.8792    0.0000 C   0  0  0  0  0  0  0  0  0  0  0  0
    4.9042   -4.9167    0.0000 C   0  0  0  0  0  0  0  0  0  0  0  0
    2.7792   -4.5042    0.0000 C   0  0  0  0  0  0  0  0  0  0  0  0
    2.0625   -4.9167    0.0000 N   0  0  0  0  0  0  0  0  0  0  0  0
    8.4667   -0.4875    0.0000 O   0  0  0  0  0  0  0  0  0  0  0  0
    2.7792   -3.6792    0.0000 C   0  0  0  0  0  0  0  0  0  0  0  0
    6.3417   -1.6292    0.0000 C   0  0  0  0  0  0  0  0  0  0  0  0
    1.3500   -4.5042    0.0000 O   0  0  0  0  0  0  0  0  0  0  0  0
    8.7500   -1.8875    0.0000 C   0  0  0  0  0  0  0  0  0  0  0  0
    5.6250   -1.2250    0.0000 C   0  0  0  0  0  0  0  0  0  0  0  0
  2  1  1  0
  3  1  1  0
  4  7  1  0
  5  3  1  0
  6 12  1  0
  7  6  1  0
  2  8  1  6
  9  4  2  0
 10  1  1  0
  2 11  1  0
 12 10  1  0
 13  3  1  0
 14  5  1  0
 15  8  3  0
 16  7  1  0
 17 11  1  0
 18  2  1  0
 19 14  1  0
 20 23  1  0
 21 20  2  0
 22 17  2  0
 23 16  1  0
  1 24  1  1
 25 21  1  0
 26 17  1  0
 27 24  1  0
 18 13  1  0
  6  5  1  0
 19  4  1  0
 20  9  1  0
M  END
>  <ID>  (919) 


>  <MOLENAME>  (919) 
NORGESTIMATE

>  <therap>  (919) 
progestin

>  <ref>  (919) 
J. Reprod. Med. (2001), 46(7), 647-661; Contraception (1985), 32(3), 311-19; Contraception (1977), 16(5), 541-53

>  <cas#>  (919) 
35189-28-7

>  <source>  (919) 
semisynthetic; ORF-10131, RWJ-10131

>  <status>  (919) 
USP, INN, BAN

>  <tradename>  (919) 
nan

>  <SMILES>  (919) 
C#C[C@]1(OC(C)=O)CCC2C3CCC4=C/C(=N/O)CCC4C3CC[C@@]21CC

>  <standardized_failed>  (919) 
False

$$$$

     RDKit          2D

 12 12  0  0  0  0  0  0  0  0999 V2000
    4.3792   -7.4250    0.0000 S   0  0  0  0  0  0  0  0  0  0  0  0
    3.5542   -7.4250    0.0000 S   0  0  0  0  0  0  0  0  0  0  0  0
    8.2000   -6.2167    0.0000 C   0  0  0  0  0  0  0  0  0  0  0  0
    8.1917   -5.3917    0.0000 O   0  0  0  0  0  0  0  0  0  0  0  0
    8.9125   -6.6250    0.0000 N   0  0  0  0  0  0  0  0  0  0  0  0
    4.6375   -6.6375    0.0000 C   0  0  0  0  0  0  0  0  0  0  0  0
    3.9667   -6.1542    0.0000 C   0  0  0  0  0  0  0  0  0  0  0  0
    3.3042   -6.6375    0.0000 C   0  0  0  0  0  0  0  0  0  0  0  0
    7.4875   -6.6292    0.0000 C   0  0  0  0  0  0  0  0  0  0  0  0
    5.3500   -6.2250    0.0000 C   0  0  0  0  0  0  0  0  0  0  0  0
    6.7750   -6.2167    0.0000 C   0  0  0  0  0  0  0  0  0  0  0  0
    6.0625   -6.6292    0.0000 C   0  0  0  0  0  0  0  0  0  0  0  0
  2  1  1  0
  3  9  1  0
  4  3  2  0
  5  3  1  0
  6  1  1  0
  7  6  1  0
  8  2  1  0
  9 11  1  0
 10  6  1  0
 11 12  1  0
 12 10  1  0
  8  7  1  0
M  END
>  <ID>  (920) 


>  <MOLENAME>  (920) 
LIPOAMIDE

>  <therap>  (920) 
hepatoprotectant

>  <ref>  (920) 
Br. J. Pharmacol. (2011), 162(5), 1213-1224; Free Radical Biol. Med. (2008), 44(7), 1465-74; Free Radical Biol. Med. (1999), 27(9-10), 1103-13

>  <cas#>  (920) 
3206-73-3

>  <source>  (920) 
semisynthetic; thioctic acid amide

>  <status>  (920) 
JAN

>  <tradename>  (920) 
nan

>  <SMILES>  (920) 
NC(=O)CCCCC1CCSS1

>  <standardized_failed>  (920) 
False

$$$$

     RDKit          2D

 23 25  0  0  0  0  0  0  0  0999 V2000
    1.6667   -5.1917    0.0000 C   0  0  0  0  0  0  0  0  0  0  0  0
    1.0000   -4.7125    0.0000 C   0  0  0  0  0  0  0  0  0  0  0  0
    3.8042   -3.9542    0.0000 C   0  0  0  0  0  0  0  0  0  0  0  0
    3.0917   -3.5417    0.0000 C   0  0  0  0  0  0  0  0  0  0  0  0
    5.2292   -4.7667    0.0000 N   0  0  0  0  0  0  0  0  0  0  0  0
    6.2250   -3.8792    0.0000 N   0  0  0  0  0  0  0  0  0  0  0  0
    3.8042   -4.7792    0.0000 C   0  0  0  0  0  0  0  0  0  0  0  0
    0.3292   -5.1917    0.0000 S   0  0  0  0  0  0  0  0  0  0  0  0
    5.4042   -3.9667    0.0000 C   0  0  0  0  0  0  0  0  0  0  0  0
    3.0875   -2.7250    0.0000 C   0  0  0  0  0  0  0  0  0  0  0  0
    4.5167   -3.5417    0.0000 C   0  0  0  0  0  0  0  0  0  0  0  0
    1.4125   -5.9875    0.0000 C   0  0  0  0  0  0  0  0  0  0  0  0
    0.5875   -5.9875    0.0000 C   0  0  0  0  0  0  0  0  0  0  0  0
    4.5167   -5.1875    0.0000 C   0  0  0  0  0  0  0  0  0  0  0  0
    2.3792   -4.7792    0.0000 C   0  0  0  0  0  0  0  0  0  0  0  0
    3.0917   -5.1917    0.0000 O   0  0  0  0  0  0  0  0  0  0  0  0
    6.5542   -4.6292    0.0000 C   0  0  0  0  0  0  0  0  0  0  0  0
    5.9417   -5.1792    0.0000 C   0  0  0  0  0  0  0  0  0  0  0  0
    1.0042   -3.8875    0.0000 Cl  0  0  0  0  0  0  0  0  0  0  0  0
    3.8042   -2.3042    0.0000 C   0  0  0  0  0  0  0  0  0  0  0  0
    2.3792   -3.9625    0.0000 Cl  0  0  0  0  0  0  0  0  0  0  0  0
    4.5167   -2.7167    0.0000 C   0  0  0  0  0  0  0  0  0  0  0  0
    3.8000   -1.4792    0.0000 Cl  0  0  0  0  0  0  0  0  0  0  0  0
  2  1  2  0
  3  7  1  0
  4  3  2  0
  5 14  1  0
  6  9  2  0
  7 16  1  0
  8  2  1  0
  9  5  1  0
 10  4  1  0
 11  3  1  0
 12  1  1  0
 13 12  2  0
 14  7  1  0
 15  1  1  0
 16 15  1  0
 17 18  2  0
 18  5  1  0
 19  2  1  0
 20 22  1  0
 21  4  1  0
 22 11  2  0
 23 20  1  0
 13  8  1  0
  6 17  1  0
 20 10  2  0
M  END
>  <ID>  (921) 


>  <MOLENAME>  (921) 
TIOCONAZOLE

>  <therap>  (921) 
antifungal

>  <ref>  (921) 
Clin Exp Dermatol 7:543 (1982); Dermatologica 166 Suppl 1:1 (1983)

>  <cas#>  (921) 
65899-73-2

>  <source>  (921) 
synthetic; UK-20349

>  <status>  (921) 
USP, INN, BAN, JAN

>  <tradename>  (921) 
VAGISTAT

>  <SMILES>  (921) 
Clc1cc(Cl)c(C(Cn2ccnc2)OCc2c(Cl)scc2)cc1

>  <standardized_failed>  (921) 
False

$$$$

     RDKit          2D

 15 15  0  0  0  0  0  0  0  0999 V2000
    7.9792   -1.4917    0.0000 C   0  0  0  0  0  0  0  0  0  0  0  0
    7.6042   -2.1417    0.0000 C   0  0  0  0  0  0  0  0  0  0  0  0
    6.8542   -2.1417    0.0000 C   0  0  0  0  0  0  0  0  0  0  0  0
    8.7292   -1.4917    0.0000 O   0  0  0  0  0  0  0  0  0  0  0  0
    6.4792   -1.4917    0.0000 C   0  0  0  0  0  0  0  0  0  0  0  0
    6.4792   -2.7792    0.0000 C   0  0  0  0  0  0  0  0  0  0  0  0
    7.6042   -0.8417    0.0000 O   0  0  0  0  0  0  0  0  0  0  0  0
    5.3542   -2.1417    0.0000 C   0  0  0  0  0  0  0  0  0  0  0  0
    5.7292   -2.7792    0.0000 C   0  0  0  0  0  0  0  0  0  0  0  0
    5.7292   -1.4917    0.0000 C   0  0  0  0  0  0  0  0  0  0  0  0
    4.6042   -2.1417    0.0000 C   0  0  0  0  0  0  0  0  0  0  0  0
    7.9792   -2.7792    0.0000 C   0  0  0  0  0  0  0  0  0  0  0  0
    4.2292   -2.7792    0.0000 C   0  0  0  0  0  0  0  0  0  0  0  0
    3.4792   -2.7792    0.0000 C   0  0  0  0  0  0  0  0  0  0  0  0
    4.6042   -3.4292    0.0000 C   0  0  0  0  0  0  0  0  0  0  0  0
  2  1  1  0
  3  2  1  0
  4  1  2  0
  5  3  2  0
  6  3  1  0
  7  1  1  0
  8  9  1  0
  9  6  2  0
 10  5  1  0
 11  8  1  0
  2 12  1  1
 13 11  1  0
 14 13  1  0
 15 13  1  0
  8 10  2  0
M  END
>  <ID>  (922) 


>  <MOLENAME>  (922) 
DEXIBUPROFEN

>  <therap>  (922) 
analgesic, antiinflammatory

>  <ref>  (922) 
Inflammopharmacology 11:371 (2003); Anesth Analg  97:309 (2003)

>  <cas#>  (922) 
51146-56-6

>  <source>  (922) 
synthetic; L-669455, MK-233

>  <status>  (922) 
USAN, INN, BAN

>  <tradename>  (922) 
nan

>  <SMILES>  (922) 
CC(C)Cc1ccc([C@H](C)C(=O)O)cc1

>  <standardized_failed>  (922) 
False

$$$$

     RDKit          2D

 17 18  0  0  0  0  0  0  0  0999 V2000
    4.1375   -2.2792    0.0000 C   0  0  0  0  0  0  0  0  0  0  0  0
    4.9250   -2.0250    0.0000 N   0  0  0  0  0  0  0  0  0  0  0  0
    4.1375   -3.1042    0.0000 N   0  0  0  0  0  0  0  0  0  0  0  0
    2.7042   -3.1042    0.0000 C   0  0  0  0  0  0  0  0  0  0  0  0
    3.4167   -1.8625    0.0000 N   0  0  0  0  0  0  0  0  0  0  0  0
    2.7042   -2.2792    0.0000 C   0  0  0  0  0  0  0  0  0  0  0  0
    3.4167   -3.5167    0.0000 C   0  0  0  0  0  0  0  0  0  0  0  0
    5.4125   -2.6917    0.0000 C   0  0  0  0  0  0  0  0  0  0  0  0
    1.9917   -3.5167    0.0000 C   0  0  0  0  0  0  0  0  0  0  0  0
    4.9250   -3.3542    0.0000 C   0  0  0  0  0  0  0  0  0  0  0  0
    1.2792   -3.1042    0.0000 C   0  0  0  0  0  0  0  0  0  0  0  0
    1.9917   -1.8667    0.0000 C   0  0  0  0  0  0  0  0  0  0  0  0
    6.2375   -2.6917    0.0000 O   0  0  0  0  0  0  0  0  0  0  0  0
    1.2792   -2.2792    0.0000 C   0  0  0  0  0  0  0  0  0  0  0  0
    1.9917   -4.3417    0.0000 Cl  0  0  0  0  0  0  0  0  0  0  0  0
    0.5625   -3.5167    0.0000 Cl  0  0  0  0  0  0  0  0  0  0  0  0
    8.7125   -3.1500    0.0000 Cl  0  0  0  0  0  0  0  0  0  0  0  0
  2  1  1  0
  3  1  1  0
  4  6  2  0
  5  1  2  0
  6  5  1  0
  7  3  1  0
  8  2  1  0
  9  4  1  0
 10  3  1  0
 11 14  1  0
 12  6  1  0
 13  8  2  0
 14 12  2  0
 15  9  1  0
 16 11  1  0
  8 10  1  0
  4  7  1  0
  9 11  2  0
M  END
>  <ID>  (923) 


>  <MOLENAME>  (923) 
ANAGRELIDE HYDROCHLORIDE

>  <therap>  (923) 
antithrombotic

>  <ref>  (923) 
N Eng J Med 92:69 (1992); Expert Opin Pharmacother 5:1781 (2004)

>  <cas#>  (923) 
58579-51-4

>  <source>  (923) 
synthetic; BL-4162a

>  <status>  (923) 
USAN, INN, BAN

>  <tradename>  (923) 
AGRYLIN

>  <SMILES>  (923) 
O=C1CN2Cc3c(ccc(Cl)c3Cl)N=C2N1

>  <standardized_failed>  (923) 
False

$$$$

     RDKit          2D

 18 19  0  0  0  0  0  0  0  0999 V2000
    6.6042   -0.6292    0.0000 C   0  0  0  0  0  0  0  0  0  0  0  0
    5.8542   -0.9667    0.0000 N   0  0  0  0  0  0  0  0  0  0  0  0
    6.7417   -1.9542    0.0000 N   0  0  0  0  0  0  0  0  0  0  0  0
    6.7667    0.1750    0.0000 C   0  0  0  0  0  0  0  0  0  0  0  0
    5.9417   -1.7917    0.0000 C   0  0  0  0  0  0  0  0  0  0  0  0
    5.1292   -0.5625    0.0000 C   0  0  0  0  0  0  0  0  0  0  0  0
    7.1542   -1.2417    0.0000 C   0  0  0  0  0  0  0  0  0  0  0  0
    6.1542    0.7250    0.0000 O   0  0  0  0  0  0  0  0  0  0  0  0
    4.4167   -0.9792    0.0000 C   0  0  0  0  0  0  0  0  0  0  0  0
    7.5542    0.4333    0.0000 O   0  0  0  0  0  0  0  0  0  0  0  0
    5.1292    0.2625    0.0000 C   0  0  0  0  0  0  0  0  0  0  0  0
    4.4167   -1.8042    0.0000 C   0  0  0  0  0  0  0  0  0  0  0  0
    3.7042   -0.5667    0.0000 C   0  0  0  0  0  0  0  0  0  0  0  0
    8.1667   -0.1167    0.0000 C   0  0  0  0  0  0  0  0  0  0  0  0
    8.9542    0.1458    0.0000 C   0  0  0  0  0  0  0  0  0  0  0  0
    3.7042   -2.2167    0.0000 C   0  0  0  0  0  0  0  0  0  0  0  0
    2.9917   -0.9792    0.0000 C   0  0  0  0  0  0  0  0  0  0  0  0
    2.9917   -1.8042    0.0000 C   0  0  0  0  0  0  0  0  0  0  0  0
  2  1  1  0
  3  7  1  0
  4  1  1  0
  5  2  1  0
  6  2  1  0
  7  1  2  0
  8  4  2  0
  9  6  1  0
 10  4  1  0
  6 11  1  1
 12  9  2  0
 13  9  1  0
 14 10  1  0
 15 14  1  0
 16 12  1  0
 17 13  2  0
 18 17  1  0
  3  5  2  0
 16 18  2  0
M  END
>  <ID>  (924) 


>  <MOLENAME>  (924) 
ETOMIDATE

>  <therap>  (924) 
sedative

>  <ref>  (924) 
Anesthesiology (2011), 114(3), 695-707; Recent Adv. Anaesth. Analg. (1979), 13, 1-22; Anaesthesiol. Resusc. (1977), 106, 25-30

>  <cas#>  (924) 
33125-97-2

>  <source>  (924) 
synthetic

>  <status>  (924) 
USAN, INN, BAN

>  <tradename>  (924) 
AMIDATE

>  <SMILES>  (924) 
CCOC(=O)c1cncn1[C@H](C)c1ccccc1

>  <standardized_failed>  (924) 
False

$$$$

     RDKit          2D

 16 17  0  0  0  0  0  0  0  0999 V2000
    3.7625   -1.7625    0.0000 C   0  0  0  0  0  0  0  0  0  0  0  0
    3.0417   -0.5167    0.0000 N   0  0  0  0  0  0  0  0  0  0  0  0
    3.7625   -0.9292    0.0000 C   0  0  0  0  0  0  0  0  0  0  0  0
    4.4792   -2.1750    0.0000 C   0  0  0  0  0  0  0  0  0  0  0  0
    3.0417   -2.1750    0.0000 N   0  0  0  0  0  0  0  0  0  0  0  0
    2.3292   -0.9375    0.0000 C   0  0  0  0  0  0  0  0  0  0  0  0
    4.4750   -3.0000    0.0000 C   0  0  0  0  0  0  0  0  0  0  0  0
    2.3292   -1.7625    0.0000 N   0  0  0  0  0  0  0  0  0  0  0  0
    5.1917   -3.4042    0.0000 C   0  0  0  0  0  0  0  0  0  0  0  0
    4.4750   -0.5167    0.0000 N   0  0  0  0  0  0  0  0  0  0  0  0
    1.6167   -0.5250    0.0000 N   0  0  0  0  0  0  0  0  0  0  0  0
    3.7625   -3.4042    0.0000 Cl  0  0  0  0  0  0  0  0  0  0  0  0
    5.1875   -1.7542    0.0000 C   0  0  0  0  0  0  0  0  0  0  0  0
    5.1917   -4.2292    0.0000 Cl  0  0  0  0  0  0  0  0  0  0  0  0
    5.9000   -2.1667    0.0000 C   0  0  0  0  0  0  0  0  0  0  0  0
    5.9042   -2.9917    0.0000 C   0  0  0  0  0  0  0  0  0  0  0  0
  2  3  2  0
  3  1  1  0
  4  1  1  0
  5  1  2  0
  6  8  2  0
  7  4  2  0
  8  5  1  0
  9  7  1  0
 10  3  1  0
 11  6  1  0
 12  7  1  0
 13  4  1  0
 14  9  1  0
 15 13  2  0
 16 15  1  0
  6  2  1  0
 16  9  2  0
M  END
>  <ID>  (925) 


>  <MOLENAME>  (925) 
LAMOTRIGINE

>  <therap>  (925) 
anticonvulsant

>  <ref>  (925) 
Curr. Probl. Epilepsy (1986), 4, 165-77; Br. J. Clin. Pharmacol. (1985), 20(6), 619-29; Epilepsia (1986), 27(5), 483-9

>  <cas#>  (925) 
84057-84-1

>  <source>  (925) 
synthetic; BW-430C

>  <status>  (925) 
USAN, INN, BAN

>  <tradename>  (925) 
LAMICTAL

>  <SMILES>  (925) 
Nc1nnc(-c2c(Cl)c(Cl)ccc2)c(N)n1

>  <standardized_failed>  (925) 
False

$$$$

     RDKit          2D

 35 38  0  0  0  0  0  0  0  0999 V2000
    5.0500   -2.3292    0.0000 C   0  0  0  0  0  0  0  0  0  0  0  0
    5.5375   -1.6542    0.0000 C   0  0  0  0  0  0  0  0  0  0  0  0
    5.0542   -0.9917    0.0000 S   0  0  0  0  0  0  0  0  0  0  0  0
    4.2625   -1.2417    0.0000 C   0  0  0  0  0  0  0  0  0  0  0  0
    4.2542   -2.0750    0.0000 C   0  0  0  0  0  0  0  0  0  0  0  0
    5.3042   -3.1167    0.0000 C   0  0  0  0  0  0  0  0  0  0  0  0
    6.3625   -1.6542    0.0000 C   0  0  0  0  0  0  0  0  0  0  0  0
    3.5417   -0.8292    0.0000 C   0  0  0  0  0  0  0  0  0  0  0  0
    3.5417   -2.4875    0.0000 C   0  0  0  0  0  0  0  0  0  0  0  0
    4.7542   -3.7292    0.0000 C   0  0  0  0  0  0  0  0  0  0  0  0
    0.9417   -5.8375    0.0000 N   0  0  0  0  0  0  0  0  0  0  0  0
    6.1125   -3.2875    0.0000 O   0  0  0  0  0  0  0  0  0  0  0  0
    6.7750   -2.3667    0.0000 C   0  0  0  0  0  0  0  0  0  0  0  0
    6.7667   -0.9417    0.0000 C   0  0  0  0  0  0  0  0  0  0  0  0
    5.0042   -4.5042    0.0000 C   0  0  0  0  0  0  0  0  0  0  0  0
    3.9417   -3.5542    0.0000 C   0  0  0  0  0  0  0  0  0  0  0  0
    2.8292   -1.2500    0.0000 C   0  0  0  0  0  0  0  0  0  0  0  0
    2.8292   -2.0750    0.0000 C   0  0  0  0  0  0  0  0  0  0  0  0
    8.0125   -1.6542    0.0000 C   0  0  0  0  0  0  0  0  0  0  0  0
    3.6500   -4.9542    0.0000 C   0  0  0  0  0  0  0  0  0  0  0  0
    7.6000   -2.3667    0.0000 C   0  0  0  0  0  0  0  0  0  0  0  0
    7.5917   -0.9417    0.0000 C   0  0  0  0  0  0  0  0  0  0  0  0
    3.3917   -4.1667    0.0000 C   0  0  0  0  0  0  0  0  0  0  0  0
    4.4625   -5.1167    0.0000 C   0  0  0  0  0  0  0  0  0  0  0  0
    1.2417   -3.4000    0.0000 Cl  0  0  0  0  0  0  0  0  0  0  0  0
    3.1000   -5.5667    0.0000 O   0  0  0  0  0  0  0  0  0  0  0  0
    1.7417   -6.0042    0.0000 C   0  0  0  0  0  0  0  0  0  0  0  0
    2.1167   -0.8375    0.0000 O   0  0  0  0  0  0  0  0  0  0  0  0
    8.8375   -1.6542    0.0000 O   0  0  0  0  0  0  0  0  0  0  0  0
    2.2917   -5.3917    0.0000 C   0  0  0  0  0  0  0  0  0  0  0  0
    0.6875   -5.0542    0.0000 C   0  0  0  0  0  0  0  0  0  0  0  0
    0.3917   -6.4500    0.0000 C   0  0  0  0  0  0  0  0  0  0  0  0
   -0.4125   -6.2792    0.0000 C   0  0  0  0  0  0  0  0  0  0  0  0
   -0.1208   -4.8792    0.0000 C   0  0  0  0  0  0  0  0  0  0  0  0
   -0.6708   -5.4917    0.0000 C   0  0  0  0  0  0  0  0  0  0  0  0
  2  1  2  0
  3  2  1  0
  4  5  2  0
  5  1  1  0
  6  1  1  0
  7  2  1  0
  8  4  1  0
  9  5  1  0
 10  6  1  0
 11 27  1  0
 12  6  2  0
 13  7  2  0
 14  7  1  0
 15 10  2  0
 16 10  1  0
 17 18  1  0
 18  9  2  0
 19 22  1  0
 20 23  1  0
 21 13  1  0
 22 14  2  0
 23 16  2  0
 24 15  1  0
 26 20  1  0
 27 30  1  0
 28 17  1  0
 29 19  1  0
 30 26  1  0
 31 11  1  0
 32 11  1  0
 33 32  1  0
 34 31  1  0
 35 34  1  0
  4  3  1  0
 20 24  2  0
 17  8  2  0
 19 21  2  0
 33 35  1  0
M  END
>  <ID>  (926) 


>  <MOLENAME>  (926) 
RALOXIFENE HYDROCHLORIDE

>  <therap>  (926) 
antiestrogen

>  <ref>  (926) 
Reprod Toxicol 12:217 (1998); JAMA 281:2189 (1999); 282:637 (1999)

>  <cas#>  (926) 
82640-04-8

>  <source>  (926) 
synthetic; LY-156758

>  <status>  (926) 
USAN, INN, BAN

>  <tradename>  (926) 
EVISTA

>  <SMILES>  (926) 
O=C(c1ccc(OCCN2CCCCC2)cc1)c1c(-c2ccc(O)cc2)sc2c1ccc(O)c2

>  <standardized_failed>  (926) 
False

$$$$

     RDKit          2D

 37 39  0  0  0  0  0  0  0  0999 V2000
    8.3000   -4.2792    0.0000 N   0  0  0  0  0  0  0  0  0  0  0  0
    7.4750   -4.2792    0.0000 C   0  0  0  0  0  0  0  0  0  0  0  0
    7.4667   -5.1000    0.0000 C   0  0  0  0  0  0  0  0  0  0  0  0
    8.2917   -5.1042    0.0000 C   0  0  0  0  0  0  0  0  0  0  0  0
    9.0042   -3.8625    0.0000 C   0  0  0  0  0  0  0  0  0  0  0  0
    4.7417   -5.2625    0.0000 C   0  0  0  0  0  0  0  0  0  0  0  0
    9.0042   -3.0375    0.0000 C   0  0  0  0  0  0  0  0  0  0  0  0
    5.4625   -5.6792    0.0000 C   0  0  0  0  0  0  0  0  0  0  0  0
    4.0375   -5.6792    0.0000 N   0  0  0  0  0  0  0  0  0  0  0  0
    6.8875   -5.6792    0.0000 N   0  0  0  0  0  0  0  0  0  0  0  0
    6.1750   -5.2667    0.0000 C   0  0  0  0  0  0  0  0  0  0  0  0
    9.0042   -5.5167    0.0000 S   0  0  0  0  0  0  0  0  0  0  0  0
    9.7250   -4.2750    0.0000 C   0  0  0  0  0  0  0  0  0  0  0  0
    3.4167   -5.1292    0.0000 C   0  0  0  0  0  0  0  0  0  0  0  0
   11.8542   -3.0250    0.0000 C   0  0  0  0  0  0  0  0  0  0  0  0
    4.5667   -4.4542    0.0000 C   0  0  0  0  0  0  0  0  0  0  0  0
    9.7167   -2.6167    0.0000 O   0  0  0  0  0  0  0  0  0  0  0  0
    3.7500   -4.3750    0.0000 S   0  0  0  0  0  0  0  0  0  0  0  0
   11.1417   -2.6167    0.0000 O   0  0  0  0  0  0  0  0  0  0  0  0
    9.7250   -5.1042    0.0000 C   0  0  0  0  0  0  0  0  0  0  0  0
   10.3542   -2.2125    0.0000 C   0  0  0  0  0  0  0  0  0  0  0  0
    5.4625   -6.5042    0.0000 N   0  0  0  0  0  0  0  0  0  0  0  0
    6.8917   -3.6917    0.0000 O   0  0  0  0  0  0  0  0  0  0  0  0
    8.2875   -2.6292    0.0000 O   0  0  0  0  0  0  0  0  0  0  0  0
    6.1750   -4.4417    0.0000 O   0  0  0  0  0  0  0  0  0  0  0  0
   11.8542   -3.8500    0.0000 O   0  0  0  0  0  0  0  0  0  0  0  0
   12.5667   -2.6125    0.0000 O   0  0  0  0  0  0  0  0  0  0  0  0
    2.6125   -5.3042    0.0000 N   0  0  0  0  0  0  0  0  0  0  0  0
   10.4375   -3.8542    0.0000 C   0  0  0  0  0  0  0  0  0  0  0  0
    4.7417   -6.9167    0.0000 O   0  0  0  0  0  0  0  0  0  0  0  0
   11.1542   -4.2667    0.0000 O   0  0  0  0  0  0  0  0  0  0  0  0
   13.2792   -3.0167    0.0000 C   0  0  0  0  0  0  0  0  0  0  0  0
   10.3125   -1.3875    0.0000 C   0  0  0  0  0  0  0  0  0  0  0  0
    4.0292   -6.5042    0.0000 C   0  0  0  0  0  0  0  0  0  0  0  0
   11.1542   -5.0917    0.0000 C   0  0  0  0  0  0  0  0  0  0  0  0
   13.9917   -2.6042    0.0000 C   0  0  0  0  0  0  0  0  0  0  0  0
   13.2792   -3.8417    0.0000 C   0  0  0  0  0  0  0  0  0  0  0  0
  2  1  1  0
  3  4  1  0
  4  1  1  0
  5  1  1  0
  6  8  1  0
  7  5  1  0
  8 11  1  0
  9  6  1  0
  3 10  1  6
 11 10  1  0
  4 12  1  6
 13  5  2  0
 14  9  2  0
 15 19  1  0
 16  6  2  0
 17  7  1  0
 18 16  1  0
 19 21  1  0
 20 13  1  0
 21 17  1  0
 22  8  2  0
 23  2  2  0
 24  7  2  0
 25 11  2  0
 26 15  2  0
 27 15  1  0
 28 14  1  0
 29 13  1  0
 30 22  1  0
 31 29  1  0
 32 27  1  0
 33 21  1  0
 34 30  1  0
 35 31  1  0
 36 32  1  0
 37 32  1  0
  3  2  1  0
 20 12  1  0
 14 18  1  0
M  END
>  <ID>  (927) 


>  <MOLENAME>  (927) 
CEFPODOXIME PROXETIL

>  <therap>  (927) 
antibacterial

>  <ref>  (927) 
Sanyo Kenkyusho Nempo 39:1 (1987); J Antimicrob Chemother 26 Suppl E:1 (1990)

>  <cas#>  (927) 
87239-81-4

>  <source>  (927) 
semisynthetic; U-76252, CS-807

>  <status>  (927) 
USP, INN, BAN, JAN

>  <tradename>  (927) 
VANTIN

>  <SMILES>  (927) 
COCC1=C(C(=O)OC(C)OC(=O)OC(C)C)N2C(=O)[C@@H](NC(=O)/C(=N/OC)c3csc(N)n3)[C@H]2SC1

>  <standardized_failed>  (927) 
False

$$$$

     RDKit          2D

 16 17  0  0  0  0  0  0  0  0999 V2000
    6.8750   -3.0125    0.0000 N   0  0  0  0  0  0  0  0  0  0  0  0
    6.4750   -2.2917    0.0000 C   0  0  0  0  0  0  0  0  0  0  0  0
    6.3167   -3.6250    0.0000 C   0  0  0  0  0  0  0  0  0  0  0  0
    5.6667   -2.4542    0.0000 N   0  0  0  0  0  0  0  0  0  0  0  0
    5.5667   -3.2750    0.0000 C   0  0  0  0  0  0  0  0  0  0  0  0
    6.8292   -1.5375    0.0000 O   0  0  0  0  0  0  0  0  0  0  0  0
    6.4750   -4.4417    0.0000 O   0  0  0  0  0  0  0  0  0  0  0  0
    5.3500   -4.0667    0.0000 C   0  0  0  0  0  0  0  0  0  0  0  0
    7.6917   -3.1042    0.0000 C   0  0  0  0  0  0  0  0  0  0  0  0
    4.7792   -3.0625    0.0000 C   0  0  0  0  0  0  0  0  0  0  0  0
    5.9292   -4.6625    0.0000 C   0  0  0  0  0  0  0  0  0  0  0  0
    4.5625   -4.2792    0.0000 C   0  0  0  0  0  0  0  0  0  0  0  0
    4.5667   -2.2750    0.0000 C   0  0  0  0  0  0  0  0  0  0  0  0
    5.7167   -5.4417    0.0000 C   0  0  0  0  0  0  0  0  0  0  0  0
    4.3417   -5.0792    0.0000 C   0  0  0  0  0  0  0  0  0  0  0  0
    4.9167   -5.6542    0.0000 C   0  0  0  0  0  0  0  0  0  0  0  0
  2  1  1  0
  3  1  1  0
  4  2  1  0
  5  3  1  0
  6  2  2  0
  7  3  2  0
  8  5  1  0
  9  1  1  0
 10  5  1  0
 11  8  2  0
 12  8  1  0
 13 10  1  0
 14 11  1  0
 15 12  2  0
 16 15  1  0
  5  4  1  0
 14 16  2  0
M  END
>  <ID>  (928) 


>  <MOLENAME>  (928) 
MEPHENYTOIN

>  <therap>  (928) 
anticonvulsant

>  <ref>  (928) 
Antiepileptic Drugs (1972), 275-81; Med. Welt (1978), 29(22), 919-26, ; Med. Press (1948), 220(5), 95-7,

>  <cas#>  (928) 
50-12-4

>  <source>  (928) 
synthetic; NSC-34652

>  <status>  (928) 
USP, INN, BAN

>  <tradename>  (928) 
nan

>  <SMILES>  (928) 
CCC1(c2ccccc2)NC(=O)N(C)C1=O

>  <standardized_failed>  (928) 
False

$$$$

     RDKit          2D

 27 27  0  0  0  0  0  0  0  0999 V2000
    6.7417   -1.9042    0.0000 S   0  0  0  0  0  0  0  0  0  0  0  0
    3.3667   -1.3792    0.0000 C   0  0  0  0  0  0  0  0  0  0  0  0
    3.1125   -2.2042    0.0000 C   0  0  0  0  0  0  0  0  0  0  0  0
    4.0542   -1.4042    0.0000 C   0  0  0  0  0  0  0  0  0  0  0  0
    6.0292   -1.4917    0.0000 O   0  0  0  0  0  0  0  0  0  0  0  0
    6.7417   -2.7292    0.0000 O   0  0  0  0  0  0  0  0  0  0  0  0
    3.8167   -2.6167    0.0000 C   0  0  0  0  0  0  0  0  0  0  0  0
    3.3667   -0.5542    0.0000 C   0  0  0  0  0  0  0  0  0  0  0  0
    2.6542   -1.7917    0.0000 C   0  0  0  0  0  0  0  0  0  0  0  0
    3.8042   -3.3667    0.0000 N   0  0  0  0  0  0  0  0  0  0  0  0
    4.4167   -0.8167    0.0000 O   0  0  0  0  0  0  0  0  0  0  0  0
    7.4542   -1.4917    0.0000 O   0  0  0  0  0  0  0  0  0  0  0  0
    6.0292   -2.3125    0.0000 O   0  0  0  0  0  0  0  0  0  0  0  0
    4.3792   -2.0042    0.0000 N   0  0  0  0  0  0  0  0  0  0  0  0
    4.4417   -3.7542    0.0000 C   0  0  0  0  0  0  0  0  0  0  0  0
    3.1500   -3.7292    0.0000 C   0  0  0  0  0  0  0  0  0  0  0  0
    4.6417   -2.6167    0.0000 C   0  0  0  0  0  0  0  0  0  0  0  0
    2.6542   -0.1417    0.0000 C   0  0  0  0  0  0  0  0  0  0  0  0
    2.6417   -2.6042    0.0000 C   0  0  0  0  0  0  0  0  0  0  0  0
    4.0792   -0.1417    0.0000 C   0  0  0  0  0  0  0  0  0  0  0  0
    1.9417   -1.3750    0.0000 C   0  0  0  0  0  0  0  0  0  0  0  0
    1.9417   -3.0250    0.0000 C   0  0  0  0  0  0  0  0  0  0  0  0
    4.0792    0.6875    0.0000 C   0  0  0  0  0  0  0  0  0  0  0  0
    2.6542    0.6875    0.0000 C   0  0  0  0  0  0  0  0  0  0  0  0
    1.2292   -1.7875    0.0000 C   0  0  0  0  0  0  0  0  0  0  0  0
    3.3667    1.1000    0.0000 C   0  0  0  0  0  0  0  0  0  0  0  0
    1.2292   -2.6125    0.0000 C   0  0  0  0  0  0  0  0  0  0  0  0
  3  2  1  0
  4  2  1  0
  5  1  2  0
  6  1  2  0
  7  3  1  0
  8  2  1  0
  9  2  1  0
 10  7  1  0
 11  4  2  0
 12  1  1  0
 13  1  1  0
 14  4  1  0
 15 10  1  0
 16 10  1  0
 17  7  1  0
 18  8  2  0
 19  9  2  0
 20  8  1  0
 21  9  1  0
 22 19  1  0
 23 20  2  0
 24 18  1  0
 25 21  2  0
 26 23  1  0
 27 25  1  0
 27 22  2  0
 24 26  2  0
M  END
>  <ID>  (929) 


>  <MOLENAME>  (929) 
AMINOPENTAMIDE SULFATE

>  <therap>  (929) 
antispasmodic, antiemetic

>  <ref>  (929) 
J Pharmacol Exp Ther 100:325 (1950); JACS 79:4451 (1957)

>  <cas#>  (929) 
119793-66-7

>  <source>  (929) 
synthetic; NND-1962; BL-139

>  <status>  (929) 
USP

>  <tradename>  (929) 
CENTRINE

>  <SMILES>  (929) 
CC(CC(C(N)=O)(c1ccccc1)c1ccccc1)N(C)C

>  <standardized_failed>  (929) 
False

$$$$

     RDKit          2D

 33 36  0  0  0  0  0  0  0  0999 V2000
    3.2292   -7.9333    0.0000 C   0  0  0  0  0  0  0  0  0  0  0  0
    2.8958   -8.6833    0.0000 N   0  0  0  0  0  0  0  0  0  0  0  0
   10.6167   -8.6417    0.0000 S   0  0  0  0  0  0  0  0  0  0  0  0
    2.6125   -7.3833    0.0000 C   0  0  0  0  0  0  0  0  0  0  0  0
    4.0333   -7.7583    0.0000 N   0  0  0  0  0  0  0  0  0  0  0  0
   10.1417   -6.7833    0.0000 N   0  0  0  0  0  0  0  0  0  0  0  0
    2.0750   -8.6000    0.0000 S   0  0  0  0  0  0  0  0  0  0  0  0
    9.4083   -7.1542    0.0000 C   0  0  0  0  0  0  0  0  0  0  0  0
   10.0125   -5.9708    0.0000 C   0  0  0  0  0  0  0  0  0  0  0  0
    8.8250   -6.5750    0.0000 C   0  0  0  0  0  0  0  0  0  0  0  0
    9.1917   -7.9500    0.0000 C   0  0  0  0  0  0  0  0  0  0  0  0
    1.9042   -7.7958    0.0000 C   0  0  0  0  0  0  0  0  0  0  0  0
    8.4000   -8.1583    0.0000 C   0  0  0  0  0  0  0  0  0  0  0  0
    7.8208   -7.5708    0.0000 C   0  0  0  0  0  0  0  0  0  0  0  0
    5.6458   -7.4167    0.0000 N   0  0  0  0  0  0  0  0  0  0  0  0
    8.0375   -6.7833    0.0000 C   0  0  0  0  0  0  0  0  0  0  0  0
    9.2000   -5.8417    0.0000 C   0  0  0  0  0  0  0  0  0  0  0  0
   11.3292   -8.2292    0.0000 O   0  0  0  0  0  0  0  0  0  0  0  0
   10.6167   -9.4667    0.0000 O   0  0  0  0  0  0  0  0  0  0  0  0
    4.5833   -8.3708    0.0000 C   0  0  0  0  0  0  0  0  0  0  0  0
    4.2792   -6.9750    0.0000 C   0  0  0  0  0  0  0  0  0  0  0  0
   10.5958   -5.3875    0.0000 O   0  0  0  0  0  0  0  0  0  0  0  0
    9.9000   -8.2292    0.0000 O   0  0  0  0  0  0  0  0  0  0  0  0
    7.0292   -7.7833    0.0000 C   0  0  0  0  0  0  0  0  0  0  0  0
    6.4417   -7.2042    0.0000 C   0  0  0  0  0  0  0  0  0  0  0  0
    5.0917   -6.8042    0.0000 C   0  0  0  0  0  0  0  0  0  0  0  0
    5.3875   -8.2000    0.0000 C   0  0  0  0  0  0  0  0  0  0  0  0
    8.1917   -8.9458    0.0000 Cl  0  0  0  0  0  0  0  0  0  0  0  0
   11.3292   -9.0542    0.0000 C   0  0  0  0  0  0  0  0  0  0  0  0
    2.6125   -6.5542    0.0000 C   0  0  0  0  0  0  0  0  0  0  0  0
    1.1833   -7.3833    0.0000 C   0  0  0  0  0  0  0  0  0  0  0  0
    1.8958   -6.1417    0.0000 C   0  0  0  0  0  0  0  0  0  0  0  0
    1.1833   -6.5542    0.0000 C   0  0  0  0  0  0  0  0  0  0  0  0
  2  1  2  0
  4  1  1  0
  5  1  1  0
  6  8  1  0
  7  2  1  0
  8 10  2  0
  9 17  1  0
 10 16  1  0
 11 13  2  0
 12  4  2  0
 13 14  1  0
 14 24  1  0
 15 26  1  0
 16 14  2  0
 17 10  1  0
 18  3  2  0
 19  3  2  0
 20  5  1  0
 21  5  1  0
 22  9  2  0
 23  3  1  0
 24 25  1  0
 25 15  1  0
 26 21  1  0
 27 20  1  0
 28 13  1  0
 29  3  1  0
 30  4  1  0
 31 12  1  0
 32 30  2  0
 33 32  1  0
  7 12  1  0
 15 27  1  0
 31 33  2  0
  8 11  1  0
  9  6  1  0
M  END
>  <ID>  (930) 


>  <MOLENAME>  (930) 
ZIPRASIDONE MESYLATE

>  <therap>  (930) 
antipsychotic

>  <ref>  (930) 
J Pharmacol Exp Ther 275:101 (1995); Clin Neuropharmacol 28:83 (2005)

>  <cas#>  (930) 
199191-69-0

>  <source>  (930) 
synthetic; CP-88, 059-27

>  <status>  (930) 
USAN

>  <tradename>  (930) 
GEODON

>  <SMILES>  (930) 
O=C1Cc2c(cc(Cl)c(CCN3CCN(c4nsc5c4cccc5)CC3)c2)N1

>  <standardized_failed>  (930) 
False

$$$$

     RDKit          2D

 22 21  0  0  0  0  0  0  0  0999 V2000
    7.4250   -0.5292    0.0000 S   0  0  0  0  0  0  0  0  0  0  0  0
    4.9875   -2.3000    0.0000 C   0  0  0  0  0  0  0  0  0  0  0  0
    4.2667   -1.8875    0.0000 C   0  0  0  0  0  0  0  0  0  0  0  0
    6.4125   -2.3000    0.0000 C   0  0  0  0  0  0  0  0  0  0  0  0
    3.5542   -2.3000    0.0000 C   0  0  0  0  0  0  0  0  0  0  0  0
    7.1250   -1.8875    0.0000 N   0  0  0  0  0  0  0  0  0  0  0  0
    5.7000   -1.8875    0.0000 C   0  0  0  0  0  0  0  0  0  0  0  0
    8.0792   -0.9125    0.0000 O   0  0  0  0  0  0  0  0  0  0  0  0
    7.4250    0.2333    0.0000 O   0  0  0  0  0  0  0  0  0  0  0  0
    3.5542   -3.1292    0.0000 C   0  0  0  0  0  0  0  0  0  0  0  0
    4.9875   -3.1292    0.0000 C   0  0  0  0  0  0  0  0  0  0  0  0
    8.0792   -0.1417    0.0000 O   0  0  0  0  0  0  0  0  0  0  0  0
    4.2667   -3.5417    0.0000 C   0  0  0  0  0  0  0  0  0  0  0  0
    6.7667   -0.9125    0.0000 C   0  0  0  0  0  0  0  0  0  0  0  0
    2.8417   -1.8917    0.0000 O   0  0  0  0  0  0  0  0  0  0  0  0
    5.6917   -1.0625    0.0000 O   0  0  0  0  0  0  0  0  0  0  0  0
    2.8417   -3.5417    0.0000 O   0  0  0  0  0  0  0  0  0  0  0  0
    7.8375   -2.3000    0.0000 C   0  0  0  0  0  0  0  0  0  0  0  0
    6.4125   -3.1250    0.0000 C   0  0  0  0  0  0  0  0  0  0  0  0
    8.5500   -1.8875    0.0000 C   0  0  0  0  0  0  0  0  0  0  0  0
    7.8292   -3.1250    0.0000 C   0  0  0  0  0  0  0  0  0  0  0  0
    5.6917   -3.5375    0.0000 C   0  0  0  0  0  0  0  0  0  0  0  0
  3  2  2  0
  4  7  1  0
  5  3  1  0
  6  4  1  0
  7  2  1  0
  8  1  2  0
  9  1  2  0
 10 13  1  0
 11  2  1  0
 12  1  1  0
 13 11  2  0
 14  1  1  0
 15  5  1  0
 16  7  1  0
 17 10  1  0
 18  6  1  0
 19  4  1  0
 20 18  1  0
 21 18  1  0
 22 19  1  0
 10  5  2  0
M  END
>  <ID>  (931) 


>  <MOLENAME>  (931) 
ISOETHARINE MESYLATE

>  <therap>  (931) 
bronchodilator

>  <ref>  (931) 
J. Med. Chem. (1974), 17(5), 513-16; Nature (1967), 214(5088), 597-8; J. Am. Pharm. Assoc. (1958), 47, 744-8

>  <cas#>  (931) 
7279-75-6

>  <source>  (931) 
synthetic

>  <status>  (931) 
USP

>  <tradename>  (931) 
BROKOSOL

>  <SMILES>  (931) 
CCC(NC(C)C)C(O)c1cc(O)c(O)cc1

>  <standardized_failed>  (931) 
False

$$$$

     RDKit          2D

 22 24  0  0  0  0  0  0  0  0999 V2000
    4.8875   -0.3167    0.0000 C   0  0  0  0  0  0  0  0  0  0  0  0
    4.4042    0.3458    0.0000 N   0  0  0  0  0  0  0  0  0  0  0  0
    4.4042   -0.9792    0.0000 N   0  0  0  0  0  0  0  0  0  0  0  0
    5.7125   -0.3167    0.0000 N   0  0  0  0  0  0  0  0  0  0  0  0
    1.4792   -1.1500    0.0000 S   0  0  0  0  0  0  0  0  0  0  0  0
    3.6167   -0.7292    0.0000 C   0  0  0  0  0  0  0  0  0  0  0  0
    2.1917   -0.7292    0.0000 C   0  0  0  0  0  0  0  0  0  0  0  0
    3.6167    0.0958    0.0000 C   0  0  0  0  0  0  0  0  0  0  0  0
    6.1167   -1.0375    0.0000 C   0  0  0  0  0  0  0  0  0  0  0  0
    2.9042   -1.1417    0.0000 C   0  0  0  0  0  0  0  0  0  0  0  0
    1.4792   -1.9750    0.0000 O   0  0  0  0  0  0  0  0  0  0  0  0
    0.7667   -0.7375    0.0000 C   0  0  0  0  0  0  0  0  0  0  0  0
    6.9417   -1.0375    0.0000 O   0  0  0  0  0  0  0  0  0  0  0  0
    2.1917    0.0875    0.0000 C   0  0  0  0  0  0  0  0  0  0  0  0
    2.9000    0.5083    0.0000 C   0  0  0  0  0  0  0  0  0  0  0  0
    5.7042   -1.7500    0.0000 O   0  0  0  0  0  0  0  0  0  0  0  0
    0.7667    0.0958    0.0000 C   0  0  0  0  0  0  0  0  0  0  0  0
    0.0500   -1.1500    0.0000 C   0  0  0  0  0  0  0  0  0  0  0  0
    6.1167   -2.4667    0.0000 C   0  0  0  0  0  0  0  0  0  0  0  0
   -0.6625   -0.7375    0.0000 C   0  0  0  0  0  0  0  0  0  0  0  0
    0.0500    0.5083    0.0000 C   0  0  0  0  0  0  0  0  0  0  0  0
   -0.6625    0.0875    0.0000 C   0  0  0  0  0  0  0  0  0  0  0  0
  2  1  2  0
  3  1  1  0
  4  1  1  0
  5  7  1  0
  6  3  1  0
  7 10  1  0
  8  2  1  0
  9  4  1  0
 10  6  2  0
 11  5  2  0
 12  5  1  0
 13  9  2  0
 14 15  1  0
 15  8  2  0
 16  9  1  0
 17 12  2  0
 18 12  1  0
 19 16  1  0
 20 18  2  0
 21 17  1  0
 22 20  1  0
  6  8  1  0
  7 14  2  0
 22 21  2  0
M  END
>  <ID>  (932) 


>  <MOLENAME>  (932) 
OXFENDAZOLE

>  <therap>  (932) 
anthelmintic

>  <ref>  (932) 
Am J Vet Res 38:465 (1977)

>  <cas#>  (932) 
53716-50-0

>  <source>  (932) 
synthetic; RS-8858

>  <status>  (932) 
USP, INN, BAN

>  <tradename>  (932) 
SYNANTHIC

>  <SMILES>  (932) 
COC(=O)Nc1nc2ccc([S+]([O-])c3ccccc3)cc2[nH]1

>  <standardized_failed>  (932) 
False

$$$$

     RDKit          2D

 12  9  0  0  0  0  0  0  0  0999 V2000
    4.6125   -2.0125    0.0000 N   0  0  0  0  0  0  0  0  0  0  0  0
    6.7500   -2.4167    0.0000 N   0  0  0  0  0  0  0  0  0  0  0  0
    1.2875   -2.0792    0.0000 Cl  0  0  0  0  0  0  0  0  0  0  0  0
    9.9667   -2.3667    0.0000 Cl  0  0  0  0  0  0  0  0  0  0  0  0
    2.4750   -2.4292    0.0000 N   0  0  0  0  0  0  0  0  0  0  0  0
    8.8875   -2.0000    0.0000 N   0  0  0  0  0  0  0  0  0  0  0  0
    5.3250   -2.4167    0.0000 C   0  0  0  0  0  0  0  0  0  0  0  0
    6.0375   -2.0042    0.0000 C   0  0  0  0  0  0  0  0  0  0  0  0
    7.4625   -2.0042    0.0000 C   0  0  0  0  0  0  0  0  0  0  0  0
    3.9000   -2.4250    0.0000 C   0  0  0  0  0  0  0  0  0  0  0  0
    8.1750   -2.4125    0.0000 C   0  0  0  0  0  0  0  0  0  0  0  0
    3.1875   -2.0167    0.0000 C   0  0  0  0  0  0  0  0  0  0  0  0
  2  8  1  0
  5 12  1  0
  6 11  1  0
  7  1  1  0
  8  7  1  0
  9  2  1  0
 10  1  1  0
 11  9  1  0
 12 10  1  0
M  END
>  <ID>  (933) 


>  <MOLENAME>  (933) 
TRIENTINE HYDROCHLORIDE

>  <therap>  (933) 
chelating agent

>  <ref>  (933) 
Prog Clin Biol Res 34:271 (1979); Dev Pharmacol Ther 1:318 (1980); Lancet 1:643 (1982)

>  <cas#>  (933) 
38260-01-4

>  <source>  (933) 
synthetic; MK-0681

>  <status>  (933) 
USP, INN, BAN

>  <tradename>  (933) 
SYPRINE

>  <SMILES>  (933) 
NCCNCCNCCN

>  <standardized_failed>  (933) 
False

$$$$

     RDKit          2D

 18 19  0  0  0  0  0  0  0  0999 V2000
    4.3250   -5.0292    0.0000 C   0  0  0  0  0  0  0  0  0  0  0  0
    4.3250   -4.2125    0.0000 C   0  0  0  0  0  0  0  0  0  0  0  0
    2.9042   -5.0375    0.0000 N   0  0  0  0  0  0  0  0  0  0  0  0
    1.4750   -5.0375    0.0000 C   0  0  0  0  0  0  0  0  0  0  0  0
    5.1042   -3.9542    0.0000 S   0  0  0  0  0  0  0  0  0  0  0  0
    3.6125   -5.4417    0.0000 C   0  0  0  0  0  0  0  0  0  0  0  0
    2.1875   -5.4500    0.0000 C   0  0  0  0  0  0  0  0  0  0  0  0
    5.5792   -4.6167    0.0000 C   0  0  0  0  0  0  0  0  0  0  0  0
    3.6125   -3.7917    0.0000 C   0  0  0  0  0  0  0  0  0  0  0  0
    5.1042   -5.2792    0.0000 C   0  0  0  0  0  0  0  0  0  0  0  0
    0.7625   -5.4542    0.0000 C   0  0  0  0  0  0  0  0  0  0  0  0
    2.9042   -4.2125    0.0000 C   0  0  0  0  0  0  0  0  0  0  0  0
    0.7667   -6.2792    0.0000 Cl  0  0  0  0  0  0  0  0  0  0  0  0
    6.6167   -5.2417    0.0000 Cl  0  0  0  0  0  0  0  0  0  0  0  0
    1.4750   -4.2125    0.0000 C   0  0  0  0  0  0  0  0  0  0  0  0
    0.0500   -5.0417    0.0000 C   0  0  0  0  0  0  0  0  0  0  0  0
    0.7625   -3.8042    0.0000 C   0  0  0  0  0  0  0  0  0  0  0  0
    0.0417   -4.2167    0.0000 C   0  0  0  0  0  0  0  0  0  0  0  0
  2  1  2  0
  3  6  1  0
  4  7  1  0
  5  2  1  0
  6  1  1  0
  7  3  1  0
  8 10  2  0
  9  2  1  0
 10  1  1  0
 11  4  2  0
 12  3  1  0
 13 11  1  0
 15  4  1  0
 16 11  1  0
 17 15  2  0
 18 17  1  0
  5  8  1  0
 12  9  1  0
 18 16  2  0
M  END
>  <ID>  (934) 


>  <MOLENAME>  (934) 
TICLOPIDINE HYDROCHLORIDE

>  <therap>  (934) 
PAF inhibitor

>  <ref>  (934) 
Arzneim Forsch 30:409, 415 (1980); Drugs 34:222 (1987)

>  <cas#>  (934) 
53885-35-1

>  <source>  (934) 
synthetic; 53-32C, 4-C-32

>  <status>  (934) 
USAN, INN, BAN, JAN

>  <tradename>  (934) 
TICLID

>  <SMILES>  (934) 
Clc1c(CN2CCc3c(ccs3)C2)cccc1

>  <standardized_failed>  (934) 
False

$$$$

     RDKit          2D

 27 27  0  0  0  0  0  0  0  0999 V2000
    5.7750   -5.9875    0.0000 N   0  0  0  0  0  0  0  0  0  0  0  0
    5.7750   -6.8125    0.0000 C   0  0  0  0  0  0  0  0  0  0  0  0
    4.9500   -5.9875    0.0000 C   0  0  0  0  0  0  0  0  0  0  0  0
    4.9500   -6.8125    0.0000 C   0  0  0  0  0  0  0  0  0  0  0  0
    6.4875   -5.5750    0.0000 C   0  0  0  0  0  0  0  0  0  0  0  0
    6.4625   -7.0250    0.0000 S   0  0  0  0  0  0  0  0  0  0  0  0
    7.0250   -6.3667    0.0000 C   0  0  0  0  0  0  0  0  0  0  0  0
    3.5917   -7.6042    0.0000 C   0  0  0  0  0  0  0  0  0  0  0  0
    4.3667   -7.3917    0.0000 N   0  0  0  0  0  0  0  0  0  0  0  0
    3.5042   -8.4292    0.0000 C   0  0  0  0  0  0  0  0  0  0  0  0
    6.4875   -4.7500    0.0000 C   0  0  0  0  0  0  0  0  0  0  0  0
    4.1792   -8.9167    0.0000 C   0  0  0  0  0  0  0  0  0  0  0  0
    2.7500   -8.7625    0.0000 C   0  0  0  0  0  0  0  0  0  0  0  0
    4.9625   -8.6625    0.0000 S   0  0  0  0  0  0  0  0  0  0  0  0
    4.3667   -5.4042    0.0000 O   0  0  0  0  0  0  0  0  0  0  0  0
    2.9250   -7.1167    0.0000 O   0  0  0  0  0  0  0  0  0  0  0  0
    7.2000   -4.3375    0.0000 O   0  0  0  0  0  0  0  0  0  0  0  0
    2.0792   -8.2792    0.0000 O   0  0  0  0  0  0  0  0  0  0  0  0
    4.1792   -9.7417    0.0000 C   0  0  0  0  0  0  0  0  0  0  0  0
    5.4417   -9.3292    0.0000 C   0  0  0  0  0  0  0  0  0  0  0  0
    5.7667   -4.3375    0.0000 O   0  0  0  0  0  0  0  0  0  0  0  0
    2.6625   -9.5792    0.0000 O   0  0  0  0  0  0  0  0  0  0  0  0
    4.9625   -9.9917    0.0000 C   0  0  0  0  0  0  0  0  0  0  0  0
    7.7375   -5.9500    0.0000 C   0  0  0  0  0  0  0  0  0  0  0  0
    7.6042   -6.9500    0.0000 C   0  0  0  0  0  0  0  0  0  0  0  0
    8.0875   -4.9000    0.0000 Na  0  0  0  0  0 15  0  0  0  0  0  0
    0.7792   -8.7417    0.0000 Na  0  0  0  0  0 15  0  0  0  0  0  0
  2  1  1  0
  3  1  1  0
  4  3  1  0
  5  1  1  0
  2  6  1  6
  7  5  1  0
  8  9  1  0
  4  9  1  6
 10  8  1  1
  5 11  1  1
 12 10  1  0
 10 13  1  0
 14 12  1  0
 15  3  2  0
 16  8  2  0
 17 11  1  0
 18 13  1  0
 19 12  2  0
 20 14  1  0
 21 11  2  0
 22 13  2  0
 23 19  1  0
 24  7  1  0
 25  7  1  0
  7  6  1  0
  4  2  1  0
 23 20  2  0
M  CHG  4  17  -1  18  -1  26   1  27   1
M  END
>  <ID>  (935) 


>  <MOLENAME>  (935) 
TICARCILLIN DISODIUM

>  <therap>  (935) 
antibacterial

>  <ref>  (935) 
Clin Pharmacol Ther 17:441 (1975); Drugs 20:325 (1980)

>  <cas#>  (935) 
4697-14-7

>  <source>  (935) 
synthetic; BRL-2288

>  <status>  (935) 
USP, INN, BAN

>  <tradename>  (935) 
TICAR

>  <SMILES>  (935) 
CC1(C)S[C@@H]2[C@H](NC(=O)[C@H](C(=O)O)c3cccs3)C(=O)N2[C@H]1C(=O)O

>  <standardized_failed>  (935) 
False

$$$$

     RDKit          2D

 38 38  0  0  0  0  0  0  0  0999 V2000
    6.4333   -3.5542    0.0000 C   0  0  0  0  0  0  0  0  0  0  0  0
    6.4333   -2.7292    0.0000 N   0  0  0  0  0  0  0  0  0  0  0  0
    5.7167   -3.9625    0.0000 N   0  0  0  0  0  0  0  0  0  0  0  0
    7.1458   -3.9625    0.0000 N   0  0  0  0  0  0  0  0  0  0  0  0
    4.3375   -2.6792    0.0000 N   0  0  0  0  0  0  0  0  0  0  0  0
    7.1458   -2.3167    0.0000 C   0  0  0  0  0  0  0  0  0  0  0  0
    5.7167   -2.3167    0.0000 C   0  0  0  0  0  0  0  0  0  0  0  0
    3.3667   -1.3667    0.0000 Br  0  0  0  0  0  0  0  0  0  0  0  0
    5.1292   -2.8917    0.0000 C   0  0  0  0  0  0  0  0  0  0  0  0
    7.1458   -1.4917    0.0000 C   0  0  0  0  0  0  0  0  0  0  0  0
    7.1458    0.1625    0.0000 C   0  0  0  0  0  0  0  0  0  0  0  0
    6.4333   -1.0792    0.0000 C   0  0  0  0  0  0  0  0  0  0  0  0
    7.8625   -1.0792    0.0000 C   0  0  0  0  0  0  0  0  0  0  0  0
    6.4333   -0.2500    0.0000 C   0  0  0  0  0  0  0  0  0  0  0  0
    7.8625   -0.2500    0.0000 C   0  0  0  0  0  0  0  0  0  0  0  0
    6.4333   -5.2000    0.0000 C   0  0  0  0  0  0  0  0  0  0  0  0
    7.1417    0.9875    0.0000 O   0  0  0  0  0  0  0  0  0  0  0  0
    7.1500   -4.7833    0.0000 C   0  0  0  0  0  0  0  0  0  0  0  0
    5.7167   -4.7875    0.0000 C   0  0  0  0  0  0  0  0  0  0  0  0
    3.7542   -3.2625    0.0000 C   0  0  0  0  0  0  0  0  0  0  0  0
    4.9167   -2.0917    0.0000 C   0  0  0  0  0  0  0  0  0  0  0  0
    3.6167   -2.2667    0.0000 C   0  0  0  0  0  0  0  0  0  0  0  0
    7.8583    1.4000    0.0000 C   0  0  0  0  0  0  0  0  0  0  0  0
    2.9542   -3.0500    0.0000 C   0  0  0  0  0  0  0  0  0  0  0  0
   -2.0333   -0.9583    0.0000 C   0  0  0  0  0  0  0  0  0  0  0  0
   -1.8208   -1.7583    0.0000 C   0  0  0  0  0  0  0  0  0  0  0  0
   -0.3833   -4.3625    0.0000 C   0  0  0  0  0  0  0  0  0  0  0  0
   -1.1833   -4.1500    0.0000 C   0  0  0  0  0  0  0  0  0  0  0  0
   -1.7625   -4.7292    0.0000 C   0  0  0  0  0  0  0  0  0  0  0  0
   -2.5583   -4.5167    0.0000 C   0  0  0  0  0  0  0  0  0  0  0  0
    2.3750   -3.6292    0.0000 C   0  0  0  0  0  0  0  0  0  0  0  0
   -2.7708   -3.7167    0.0000 C   0  0  0  0  0  0  0  0  0  0  0  0
   -2.1958   -3.1375    0.0000 C   0  0  0  0  0  0  0  0  0  0  0  0
   -2.4083   -2.3417    0.0000 C   0  0  0  0  0  0  0  0  0  0  0  0
    1.5792   -3.4167    0.0000 C   0  0  0  0  0  0  0  0  0  0  0  0
    0.9917   -3.9917    0.0000 C   0  0  0  0  0  0  0  0  0  0  0  0
    0.2000   -3.7792    0.0000 C   0  0  0  0  0  0  0  0  0  0  0  0
   -1.4500   -0.3750    0.0000 C   0  0  0  0  0  0  0  0  0  0  0  0
  2  1  1  0
  3  1  2  0
  4  1  1  0
  5  9  1  0
  6  2  1  0
  7  2  1  0
  9  7  1  0
 10  6  1  0
 11 14  2  0
 12 10  2  0
 13 10  1  0
 14 12  1  0
 15 13  2  0
 16 18  1  0
 17 11  1  0
 18  4  2  0
 19  3  1  0
 20  5  1  0
 21  5  1  0
 22  5  1  0
 23 17  1  0
 24 20  1  0
 25 26  1  0
 26 34  1  0
 27 37  1  0
 28 27  1  0
 29 28  1  0
 30 29  1  0
 31 24  1  0
 32 30  1  0
 33 32  1  0
 34 33  1  0
 35 31  1  0
 36 35  1  0
 37 36  1  0
 38 25  1  0
 16 19  2  0
 11 15  1  0
M  CHG  2   5   1   8  -1
M  END
>  <ID>  (936) 


>  <MOLENAME>  (936) 
THONZONIUM BROMIDE

>  <therap>  (936) 
mucolytic, antibacterial, surface active agent

>  <ref>  (936) 
Eye Ear Nose & Throat 33:351 (1954)

>  <cas#>  (936) 
553-08-2

>  <source>  (936) 
synthetic

>  <status>  (936) 
USAN, USP-XXII, INN

>  <tradename>  (936) 
THONZIDE

>  <SMILES>  (936) 
CCCCCCCCCCCCCCCC[N+](C)(C)CCN(Cc1ccc(OC)cc1)c1ncccn1

>  <standardized_failed>  (936) 
False

$$$$

     RDKit          2D

 29 31  0  0  0  0  0  0  0  0999 V2000
    4.3000   -5.8792    0.0000 N   0  0  0  0  0  0  0  0  0  0  0  0
    3.8792   -6.6000    0.0000 C   0  0  0  0  0  0  0  0  0  0  0  0
    4.2917   -7.3125    0.0000 N   0  0  0  0  0  0  0  0  0  0  0  0
    5.1167   -5.8792    0.0000 C   0  0  0  0  0  0  0  0  0  0  0  0
    5.5292   -6.6000    0.0000 N   0  0  0  0  0  0  0  0  0  0  0  0
    5.1167   -7.3125    0.0000 C   0  0  0  0  0  0  0  0  0  0  0  0
    3.8875   -5.1667    0.0000 C   0  0  0  0  0  0  0  0  0  0  0  0
   -1.0583   -2.3167    0.0000 C   0  0  0  0  0  0  0  0  0  0  0  0
    4.3000   -4.4542    0.0000 C   0  0  0  0  0  0  0  0  0  0  0  0
    3.0542   -6.5917    0.0000 O   0  0  0  0  0  0  0  0  0  0  0  0
    3.0667   -3.7417    0.0000 C   0  0  0  0  0  0  0  0  0  0  0  0
    5.5292   -5.1667    0.0000 O   0  0  0  0  0  0  0  0  0  0  0  0
    3.8875   -3.7417    0.0000 C   0  0  0  0  0  0  0  0  0  0  0  0
    5.5292   -8.0292    0.0000 O   0  0  0  0  0  0  0  0  0  0  0  0
   -0.6458   -3.0292    0.0000 S   0  0  0  0  0  0  0  0  0  0  0  0
    2.6542   -3.0292    0.0000 O   0  0  0  0  0  0  0  0  0  0  0  0
    3.0625   -5.1667    0.0000 C   0  0  0  0  0  0  0  0  0  0  0  0
    2.6500   -4.4542    0.0000 C   0  0  0  0  0  0  0  0  0  0  0  0
    3.8792   -8.0250    0.0000 C   0  0  0  0  0  0  0  0  0  0  0  0
   -0.6458   -1.6042    0.0000 F   0  0  0  0  0  0  0  0  0  0  0  0
   -1.4750   -1.6042    0.0000 F   0  0  0  0  0  0  0  0  0  0  0  0
   -1.8833   -2.3250    0.0000 F   0  0  0  0  0  0  0  0  0  0  0  0
    1.8292   -3.0292    0.0000 C   0  0  0  0  0  0  0  0  0  0  0  0
    0.1792   -3.0292    0.0000 C   0  0  0  0  0  0  0  0  0  0  0  0
    1.4167   -2.3167    0.0000 C   0  0  0  0  0  0  0  0  0  0  0  0
    1.4167   -3.7417    0.0000 C   0  0  0  0  0  0  0  0  0  0  0  0
    0.5917   -2.3167    0.0000 C   0  0  0  0  0  0  0  0  0  0  0  0
    0.5917   -3.7417    0.0000 C   0  0  0  0  0  0  0  0  0  0  0  0
    4.2917   -3.0250    0.0000 C   0  0  0  0  0  0  0  0  0  0  0  0
  2  1  1  0
  3  2  1  0
  4  1  1  0
  5  4  1  0
  6  5  1  0
  7  1  1  0
  8 15  1  0
  9  7  2  0
 10  2  2  0
 11 18  1  0
 12  4  2  0
 13  9  1  0
 14  6  2  0
 15 24  1  0
 16 11  1  0
 17  7  1  0
 18 17  2  0
 19  3  1  0
 20  8  1  0
 21  8  1  0
 22  8  1  0
 23 16  1  0
 24 28  2  0
 25 23  1  0
 26 23  2  0
 27 25  2  0
 28 26  1  0
 29 13  1  0
 11 13  2  0
  6  3  1  0
 24 27  1  0
M  END
>  <ID>  (937) 


>  <MOLENAME>  (937) 
TOLTRAZURIL

>  <therap>  (937) 
coccidiostat

>  <ref>  (937) 
Acta Vet Scand 27:124 (1986); J Comp Pathol 97:21 (1987)

>  <cas#>  (937) 
69004-03-1

>  <source>  (937) 
synthetic; Bay-Vi-9142

>  <status>  (937) 
USAN, INN, BAN

>  <tradename>  (937) 
BAYCOX

>  <SMILES>  (937) 
Cc1c(Oc2ccc(SC(F)(F)F)cc2)ccc(-n2c(=O)[nH]c(=O)n(C)c2=O)c1

>  <standardized_failed>  (937) 
False

$$$$

     RDKit          2D

 87 92  0  0  0  0  0  0  0  0999 V2000
    9.5375   -0.8375    0.0000 S   0  0  0  0  0  0  0  0  0  0  0  0
    2.7917   -0.7167    0.0000 S   0  0  0  0  0  0  0  0  0  0  0  0
   11.0417   -3.9375    0.0000 N   0  0  0  0  0  0  0  0  0  0  0  0
    1.2042   -3.9083    0.0000 N   0  0  0  0  0  0  0  0  0  0  0  0
   12.4667   -3.9458    0.0000 C   0  0  0  0  0  0  0  0  0  0  0  0
   -0.2208   -3.9167    0.0000 C   0  0  0  0  0  0  0  0  0  0  0  0
   11.7542   -3.5292    0.0000 C   0  0  0  0  0  0  0  0  0  0  0  0
    0.4917   -3.5042    0.0000 C   0  0  0  0  0  0  0  0  0  0  0  0
   -0.2208   -4.7333    0.0000 C   0  0  0  0  0  0  0  0  0  0  0  0
   12.4667   -4.7625    0.0000 C   0  0  0  0  0  0  0  0  0  0  0  0
   13.1708   -3.5375    0.0000 C   0  0  0  0  0  0  0  0  0  0  0  0
   -0.9250   -3.5083    0.0000 C   0  0  0  0  0  0  0  0  0  0  0  0
   13.8792   -3.9458    0.0000 C   0  0  0  0  0  0  0  0  0  0  0  0
   -1.6333   -3.9167    0.0000 C   0  0  0  0  0  0  0  0  0  0  0  0
   13.1708   -5.1708    0.0000 C   0  0  0  0  0  0  0  0  0  0  0  0
   -0.9250   -5.1417    0.0000 C   0  0  0  0  0  0  0  0  0  0  0  0
    9.5292   -1.6625    0.0000 O   0  0  0  0  0  0  0  0  0  0  0  0
    2.7875   -1.5417    0.0000 O   0  0  0  0  0  0  0  0  0  0  0  0
   13.8750   -4.7667    0.0000 C   0  0  0  0  0  0  0  0  0  0  0  0
   -1.6292   -4.7375    0.0000 C   0  0  0  0  0  0  0  0  0  0  0  0
    2.6292   -3.9042    0.0000 C   0  0  0  0  0  0  0  0  0  0  0  0
    9.6167   -3.9375    0.0000 C   0  0  0  0  0  0  0  0  0  0  0  0
   10.3292   -3.5292    0.0000 C   0  0  0  0  0  0  0  0  0  0  0  0
    1.9167   -3.5000    0.0000 C   0  0  0  0  0  0  0  0  0  0  0  0
   10.3625   -0.8375    0.0000 O   0  0  0  0  0  0  0  0  0  0  0  0
    1.9667   -0.7167    0.0000 O   0  0  0  0  0  0  0  0  0  0  0  0
    3.6167   -0.7167    0.0000 O   0  0  0  0  0  0  0  0  0  0  0  0
    8.7125   -0.8375    0.0000 O   0  0  0  0  0  0  0  0  0  0  0  0
    3.3417   -3.4917    0.0000 C   0  0  0  0  0  0  0  0  0  0  0  0
    8.9042   -3.5250    0.0000 C   0  0  0  0  0  0  0  0  0  0  0  0
    9.5417   -0.0125    0.0000 C   0  0  0  0  0  0  0  0  0  0  0  0
    2.7958    0.1083    0.0000 C   0  0  0  0  0  0  0  0  0  0  0  0
   13.1958   -1.0667    0.0000 C   0  0  0  0  0  0  0  0  0  0  0  0
   -0.9500   -1.0375    0.0000 C   0  0  0  0  0  0  0  0  0  0  0  0
    1.2042   -4.7333    0.0000 C   0  0  0  0  0  0  0  0  0  0  0  0
   11.0417   -4.7625    0.0000 C   0  0  0  0  0  0  0  0  0  0  0  0
    0.4833   -2.6792    0.0000 C   0  0  0  0  0  0  0  0  0  0  0  0
   11.7625   -2.7042    0.0000 C   0  0  0  0  0  0  0  0  0  0  0  0
   13.9083   -1.4833    0.0000 C   0  0  0  0  0  0  0  0  0  0  0  0
   -1.6625   -1.4542    0.0000 C   0  0  0  0  0  0  0  0  0  0  0  0
   12.4792   -1.4750    0.0000 C   0  0  0  0  0  0  0  0  0  0  0  0
   -0.2333   -1.4458    0.0000 C   0  0  0  0  0  0  0  0  0  0  0  0
    0.4917   -5.1417    0.0000 C   0  0  0  0  0  0  0  0  0  0  0  0
   11.7542   -5.1708    0.0000 C   0  0  0  0  0  0  0  0  0  0  0  0
   -0.2333   -2.2667    0.0000 C   0  0  0  0  0  0  0  0  0  0  0  0
   12.4792   -2.2958    0.0000 C   0  0  0  0  0  0  0  0  0  0  0  0
    8.9083   -2.7000    0.0000 O   0  0  0  0  0  0  0  0  0  0  0  0
    3.3375   -2.6667    0.0000 O   0  0  0  0  0  0  0  0  0  0  0  0
   -1.6542   -2.2833    0.0000 C   0  0  0  0  0  0  0  0  0  0  0  0
   13.9000   -2.3125    0.0000 C   0  0  0  0  0  0  0  0  0  0  0  0
   -0.9375   -2.6875    0.0000 C   0  0  0  0  0  0  0  0  0  0  0  0
   13.1833   -2.7167    0.0000 C   0  0  0  0  0  0  0  0  0  0  0  0
    0.4875   -4.3167    0.0000 C   0  0  0  0  0  0  0  0  0  0  0  0
   11.7625   -4.3417    0.0000 C   0  0  0  0  0  0  0  0  0  0  0  0
   14.5958   -3.5333    0.0000 O   0  0  0  0  0  0  0  0  0  0  0  0
   -2.3500   -3.5042    0.0000 O   0  0  0  0  0  0  0  0  0  0  0  0
   -2.3458   -5.1500    0.0000 O   0  0  0  0  0  0  0  0  0  0  0  0
   14.5917   -5.1792    0.0000 O   0  0  0  0  0  0  0  0  0  0  0  0
   13.2000   -0.2417    0.0000 O   0  0  0  0  0  0  0  0  0  0  0  0
   -0.9542   -0.2125    0.0000 O   0  0  0  0  0  0  0  0  0  0  0  0
    8.1917   -3.9292    0.0000 O   0  0  0  0  0  0  0  0  0  0  0  0
    4.0542   -3.9042    0.0000 O   0  0  0  0  0  0  0  0  0  0  0  0
   14.6250   -1.0750    0.0000 O   0  0  0  0  0  0  0  0  0  0  0  0
   -2.3792   -1.0458    0.0000 O   0  0  0  0  0  0  0  0  0  0  0  0
   10.2583    0.3958    0.0000 C   0  0  0  0  0  0  0  0  0  0  0  0
    2.0875    0.5250    0.0000 C   0  0  0  0  0  0  0  0  0  0  0  0
    8.8333    0.4042    0.0000 C   0  0  0  0  0  0  0  0  0  0  0  0
    3.5125    0.5167    0.0000 C   0  0  0  0  0  0  0  0  0  0  0  0
    4.7667   -3.4917    0.0000 C   0  0  0  0  0  0  0  0  0  0  0  0
    7.4792   -3.5167    0.0000 C   0  0  0  0  0  0  0  0  0  0  0  0
   -0.2417    0.2042    0.0000 C   0  0  0  0  0  0  0  0  0  0  0  0
   12.4875    0.1750    0.0000 C   0  0  0  0  0  0  0  0  0  0  0  0
   14.5875   -6.0042    0.0000 C   0  0  0  0  0  0  0  0  0  0  0  0
   -3.0583   -4.7417    0.0000 C   0  0  0  0  0  0  0  0  0  0  0  0
   15.3083   -3.9458    0.0000 C   0  0  0  0  0  0  0  0  0  0  0  0
   -2.3500   -2.6792    0.0000 C   0  0  0  0  0  0  0  0  0  0  0  0
   14.6292   -0.2500    0.0000 C   0  0  0  0  0  0  0  0  0  0  0  0
   -2.3833   -0.2208    0.0000 C   0  0  0  0  0  0  0  0  0  0  0  0
    5.4792   -3.9000    0.0000 C   0  0  0  0  0  0  0  0  0  0  0  0
    6.7667   -3.9292    0.0000 C   0  0  0  0  0  0  0  0  0  0  0  0
    6.0542   -3.5167    0.0000 C   0  0  0  0  0  0  0  0  0  0  0  0
   10.2583    1.2250    0.0000 C   0  0  0  0  0  0  0  0  0  0  0  0
    8.8375    1.2250    0.0000 C   0  0  0  0  0  0  0  0  0  0  0  0
    2.0917    1.3500    0.0000 C   0  0  0  0  0  0  0  0  0  0  0  0
    3.5125    1.3458    0.0000 C   0  0  0  0  0  0  0  0  0  0  0  0
    9.5500    1.6333    0.0000 C   0  0  0  0  0  0  0  0  0  0  0  0
    2.8042    1.7542    0.0000 C   0  0  0  0  0  0  0  0  0  0  0  0
  4 24  1  0
  5  7  1  0
  6  8  1  0
  7  3  1  0
  8  4  1  0
  9 43  1  0
 10 44  1  0
 11  5  2  0
 12  6  2  0
 13 11  1  0
 14 12  1  0
 15 10  2  0
 16  9  2  0
 17  1  1  0
 18  2  1  0
 19 15  1  0
 20 16  1  0
 21 29  1  0
 22 23  1  0
 23  3  1  0
 24 21  1  0
 25  1  2  0
 26  2  2  0
 27  2  2  0
 28  1  2  0
 29 62  1  0
 30 22  1  0
 31  1  1  0
 32  2  1  0
 33 41  2  0
 34 42  2  0
 35  4  1  0
 36  3  1  0
 37  8  1  0
 38  7  1  0
 39 50  2  0
 40 49  2  0
 41 46  1  0
 42 45  1  0
 43 35  1  0
 44 36  1  0
 45 37  1  0
 46 38  1  0
 47 30  2  0
 48 29  2  0
 49 51  1  0
 50 52  1  0
 51 45  2  0
 52 46  2  0
 53  4  1  0
 54  3  1  0
 55 13  1  0
 56 14  1  0
 57 20  1  0
 58 19  1  0
 59 33  1  0
 60 34  1  0
 61 30  1  0
 62 69  1  0
 63 39  1  0
 64 40  1  0
 65 31  2  0
 66 32  2  0
 67 31  1  0
 68 32  1  0
 69 79  1  0
 70 61  1  0
 71 60  1  0
 72 59  1  0
 73 58  1  0
 74 57  1  0
 75 55  1  0
 76 56  1  0
 77 63  1  0
 78 64  1  0
 79 81  1  0
 80 70  1  0
 81 80  1  0
 82 65  1  0
 83 67  2  0
 84 66  1  0
 85 68  2  0
 86 82  2  0
 87 85  1  0
 83 86  1  0
 84 87  2  0
  5 10  1  0
 19 13  2  0
 39 33  1  0
  6  9  1  0
 20 14  2  0
 40 34  1  0
M  CHG  4   3   1   4   1  17  -1  18  -1
M  END
>  <ID>  (938) 


>  <MOLENAME>  (938) 
ATRACURIUM BESYLATE

>  <therap>  (938) 
neuromuscular blocker

>  <ref>  (938) 
Br J Anesth 55 Suppl 1:1S (1983); 58 Suppl 1:1S (1986)

>  <cas#>  (938) 
64228-81-5

>  <source>  (938) 
synthetic; BW-33A

>  <status>  (938) 
USP, INN, BAN

>  <tradename>  (938) 
TRACRIUM

>  <SMILES>  (938) 
COc1ccc(CC2c3cc(OC)c(OC)cc3CC[N+]2(C)CCC(=O)OCCCCCOC(=O)CC[N+]2(C)CCc3cc(OC)c(OC)cc3C2Cc2ccc(OC)c(OC)c2)cc1OC

>  <standardized_failed>  (938) 
False

$$$$

     RDKit          2D

 20 22  0  0  0  0  0  0  0  0999 V2000
    2.3958   -1.4292    0.0000 C   0  0  0  0  0  0  0  0  0  0  0  0
    5.7250   -0.3042    0.0000 N   0  0  0  0  0  0  0  0  0  0  0  0
    5.7250   -1.1292    0.0000 C   0  0  0  0  0  0  0  0  0  0  0  0
    3.6333   -0.7167    0.0000 C   0  0  0  0  0  0  0  0  0  0  0  0
    3.2208   -1.4292    0.0000 C   0  0  0  0  0  0  0  0  0  0  0  0
    4.4583   -0.7167    0.0000 C   0  0  0  0  0  0  0  0  0  0  0  0
    1.9875   -2.1417    0.0000 O   0  0  0  0  0  0  0  0  0  0  0  0
    4.9417   -1.3875    0.0000 C   0  0  0  0  0  0  0  0  0  0  0  0
    1.9875   -0.7208    0.0000 C   0  0  0  0  0  0  0  0  0  0  0  0
    4.9417   -0.0500    0.0000 C   0  0  0  0  0  0  0  0  0  0  0  0
    6.3917   -1.6167    0.0000 O   0  0  0  0  0  0  0  0  0  0  0  0
    3.2208   -0.0042    0.0000 C   0  0  0  0  0  0  0  0  0  0  0  0
    2.3958   -0.0083    0.0000 C   0  0  0  0  0  0  0  0  0  0  0  0
    1.1625   -2.1417    0.0000 C   0  0  0  0  0  0  0  0  0  0  0  0
    1.1625   -0.7250    0.0000 O   0  0  0  0  0  0  0  0  0  0  0  0
    0.6750   -0.0583    0.0000 C   0  0  0  0  0  0  0  0  0  0  0  0
    0.6708   -2.8125    0.0000 C   0  0  0  0  0  0  0  0  0  0  0  0
    0.6792   -1.3917    0.0000 C   0  0  0  0  0  0  0  0  0  0  0  0
   -0.1125   -1.7333    0.0000 C   0  0  0  0  0  0  0  0  0  0  0  0
   -0.1125   -2.5583    0.0000 C   0  0  0  0  0  0  0  0  0  0  0  0
  2 10  1  0
  3  8  1  0
  4  5  2  0
  5  1  1  0
  6  4  1  0
  7  1  1  0
  8  6  1  0
  9  1  2  0
 10  6  1  0
 11  3  2  0
 12  4  1  0
 13  9  1  0
 14  7  1  0
 15  9  1  0
 16 15  1  0
 17 14  1  0
 18 14  1  0
 19 18  1  0
 20 17  1  0
 13 12  2  0
 20 19  1  0
  2  3  1  0
M  END
>  <ID>  (939) 


>  <MOLENAME>  (939) 
ROLIPRAM

>  <therap>  (939) 
tranquilizer

>  <ref>  (939) 
Curr Ther Res 43:291 (1988); Nat Med 1:244 (1995); Biochem J 347:571 (2000)

>  <cas#>  (939) 
61413-54-5

>  <source>  (939) 
synthetic; ZK-62711

>  <status>  (939) 
USAN, INN

>  <tradename>  (939) 
nan

>  <SMILES>  (939) 
COc1c(OC2CCCC2)cc(C2CNC(=O)C2)cc1

>  <standardized_failed>  (939) 
False

$$$$

     RDKit          2D

 38 42  0  0  0  0  0  0  0  0999 V2000
    7.4167   -1.9250    0.0000 C   0  0  0  0  0  0  0  0  0  0  0  0
    5.9875   -1.9250    0.0000 C   0  0  0  0  0  0  0  0  0  0  0  0
    8.8500   -1.9250    0.0000 C   0  0  0  0  0  0  0  0  0  0  0  0
    6.7042   -1.5125    0.0000 C   0  0  0  0  0  0  0  0  0  0  0  0
    8.1292   -1.5125    0.0000 C   0  0  0  0  0  0  0  0  0  0  0  0
    7.4167   -2.7500    0.0000 C   0  0  0  0  0  0  0  0  0  0  0  0
    8.8500   -2.7500    0.0000 C   0  0  0  0  0  0  0  0  0  0  0  0
    5.2792   -1.5125    0.0000 C   0  0  0  0  0  0  0  0  0  0  0  0
    5.9875   -2.7500    0.0000 C   0  0  0  0  0  0  0  0  0  0  0  0
    4.5625   -1.9250    0.0000 C   0  0  0  0  0  0  0  0  0  0  0  0
    5.2792   -3.1625    0.0000 C   0  0  0  0  0  0  0  0  0  0  0  0
    4.5625   -2.7500    0.0000 C   0  0  0  0  0  0  0  0  0  0  0  0
    8.1292   -3.1625    0.0000 C   0  0  0  0  0  0  0  0  0  0  0  0
    9.5667   -1.5125    0.0000 C   0  0  0  0  0  0  0  0  0  0  0  0
    6.7042   -3.1625    0.0000 C   0  0  0  0  0  0  0  0  0  0  0  0
    9.5750   -0.6875    0.0000 N   0  0  0  0  0  0  0  0  0  0  0  0
   10.2917    0.5500    0.0000 N   0  0  0  0  0  0  0  0  0  0  0  0
   10.2875   -0.2750    0.0000 C   0  0  0  0  0  0  0  0  0  0  0  0
    8.1292   -0.6875    0.0000 O   0  0  0  0  0  0  0  0  0  0  0  0
    5.2792   -0.6875    0.0000 O   0  0  0  0  0  0  0  0  0  0  0  0
    8.1292   -3.9875    0.0000 N   0  0  0  0  0  0  0  0  0  0  0  0
    3.8500   -1.5125    0.0000 C   0  0  0  0  0  0  0  0  0  0  0  0
    7.4292   -1.1750    0.0000 O   0  0  0  0  0  0  0  0  0  0  0  0
   10.2792   -1.9250    0.0000 O   0  0  0  0  0  0  0  0  0  0  0  0
    6.7042   -0.6875    0.0000 O   0  0  0  0  0  0  0  0  0  0  0  0
    9.5667   -3.1750    0.0000 O   0  0  0  0  0  0  0  0  0  0  0  0
    4.7167   -3.7750    0.0000 O   0  0  0  0  0  0  0  0  0  0  0  0
    3.8500   -3.1625    0.0000 C   0  0  0  0  0  0  0  0  0  0  0  0
    5.6917   -3.8750    0.0000 C   0  0  0  0  0  0  0  0  0  0  0  0
    3.8500   -0.6875    0.0000 O   0  0  0  0  0  0  0  0  0  0  0  0
   10.9542    1.0250    0.0000 C   0  0  0  0  0  0  0  0  0  0  0  0
    9.6250    1.0333    0.0000 C   0  0  0  0  0  0  0  0  0  0  0  0
    3.1292   -2.7500    0.0000 C   0  0  0  0  0  0  0  0  0  0  0  0
    3.1292   -1.9250    0.0000 C   0  0  0  0  0  0  0  0  0  0  0  0
    7.4167   -4.4000    0.0000 C   0  0  0  0  0  0  0  0  0  0  0  0
    8.8500   -4.4000    0.0000 C   0  0  0  0  0  0  0  0  0  0  0  0
    9.8792    1.8208    0.0000 C   0  0  0  0  0  0  0  0  0  0  0  0
   10.7042    1.8125    0.0000 C   0  0  0  0  0  0  0  0  0  0  0  0
  2  4  2  0
  3  5  1  0
  4  1  1  0
  5  1  1  0
  6  1  1  0
  7 13  1  0
  8  2  1  0
  9 15  1  6
 10  8  1  0
 11  9  1  0
 12 11  1  0
 13  6  1  0
 14  3  1  0
  6 15  1  6
 16 14  1  0
 17 18  1  0
 18 16  1  0
 19  5  2  0
 20  8  2  0
 13 21  1  1
 22 10  2  0
  1 23  1  1
 24 14  2  0
 25  4  1  0
 26  7  1  0
 11 27  1  0
 28 12  2  0
 11 29  1  1
 30 22  1  0
 31 17  1  0
 32 17  1  0
 33 28  1  0
 34 22  1  0
 35 21  1  0
 36 21  1  0
 37 32  1  0
 38 31  1  0
  9  2  1  0
  7  3  2  0
 12 10  1  0
 33 34  2  0
 37 38  1  0
M  END
>  <ID>  (940) 


>  <MOLENAME>  (940) 
ROLITETRACYCLINE

>  <therap>  (940) 
antibacterial

>  <ref>  (940) 
Toxicol Appl Pharmacol 18:185 (1971); Antimicrob Agents Chemother 10:802 (1976)

>  <cas#>  (940) 
751-97-3

>  <source>  (940) 
semisynthetic; SQ-15659

>  <status>  (940) 
USP-XXII, INN, BAN, JAN

>  <tradename>  (940) 
SYNTETRIN

>  <SMILES>  (940) 
CN(C)[C@@H]1C(O)=C(C(=O)NCN2CCCC2)C(=O)[C@@]2(O)C(O)=C3C(=O)c4c(O)cccc4[C@@](C)(O)[C@H]3C[C@@H]12

>  <standardized_failed>  (940) 
False

$$$$

     RDKit          2D

 27 29  0  0  0  0  0  0  0  0999 V2000
    7.8375   -2.5375    0.0000 C   0  0  0  0  0  0  0  0  0  0  0  0
    8.4167   -3.1167    0.0000 N   0  0  0  0  0  0  0  0  0  0  0  0
    8.3292   -1.8750    0.0000 C   0  0  0  0  0  0  0  0  0  0  0  0
    7.4292   -3.2500    0.0000 C   0  0  0  0  0  0  0  0  0  0  0  0
    7.4250   -1.8250    0.0000 C   0  0  0  0  0  0  0  0  0  0  0  0
    6.2000   -2.5417    0.0000 N   0  0  0  0  0  0  0  0  0  0  0  0
    3.7417   -3.9667    0.0000 C   0  0  0  0  0  0  0  0  0  0  0  0
    2.9167   -3.9667    0.0000 C   0  0  0  0  0  0  0  0  0  0  0  0
    8.3250   -1.0500    0.0000 O   0  0  0  0  0  0  0  0  0  0  0  0
    6.6042   -1.8292    0.0000 C   0  0  0  0  0  0  0  0  0  0  0  0
    6.6042   -3.2500    0.0000 C   0  0  0  0  0  0  0  0  0  0  0  0
    4.1542   -4.6792    0.0000 O   0  0  0  0  0  0  0  0  0  0  0  0
    2.5042   -3.2542    0.0000 C   0  0  0  0  0  0  0  0  0  0  0  0
    2.5042   -4.6792    0.0000 C   0  0  0  0  0  0  0  0  0  0  0  0
    9.0792   -1.8750    0.0000 N   0  0  0  0  0  0  0  0  0  0  0  0
    1.2750   -3.9750    0.0000 C   0  0  0  0  0  0  0  0  0  0  0  0
    1.6792   -3.2625    0.0000 C   0  0  0  0  0  0  0  0  0  0  0  0
    1.6792   -4.6792    0.0000 C   0  0  0  0  0  0  0  0  0  0  0  0
    0.4500   -3.9750    0.0000 F   0  0  0  0  0  0  0  0  0  0  0  0
    5.3792   -2.5417    0.0000 C   0  0  0  0  0  0  0  0  0  0  0  0
    8.2042   -3.9125    0.0000 C   0  0  0  0  0  0  0  0  0  0  0  0
    9.2125   -2.9042    0.0000 C   0  0  0  0  0  0  0  0  0  0  0  0
    4.9667   -3.2542    0.0000 C   0  0  0  0  0  0  0  0  0  0  0  0
    4.1500   -3.2542    0.0000 C   0  0  0  0  0  0  0  0  0  0  0  0
    9.7917   -3.4917    0.0000 C   0  0  0  0  0  0  0  0  0  0  0  0
    8.7792   -4.4917    0.0000 C   0  0  0  0  0  0  0  0  0  0  0  0
    9.5750   -4.2875    0.0000 C   0  0  0  0  0  0  0  0  0  0  0  0
  2  1  1  0
  3  1  1  0
  4  1  1  0
  5  1  1  0
  6 10  1  0
  7 24  1  0
  8  7  1  0
  9  3  2  0
 10  5  1  0
 11  4  1  0
 12  7  2  0
 13  8  2  0
 14  8  1  0
 15  3  1  0
 16 18  1  0
 17 13  1  0
 18 14  2  0
 19 16  1  0
 20  6  1  0
 21  2  1  0
 22  2  1  0
 23 20  1  0
 24 23  1  0
 25 22  1  0
 26 21  1  0
 27 25  1  0
 11  6  1  0
 27 26  1  0
 16 17  2  0
M  END
>  <ID>  (941) 


>  <MOLENAME>  (941) 
PIPAMPERONE

>  <therap>  (941) 
antipsychotic

>  <ref>  (941) 
Acta Psychiat Scand 52:237 (1975);   Life Sci 80:74 (2006)

>  <cas#>  (941) 
1893-33-0

>  <source>  (941) 
synthetic; R-3345

>  <status>  (941) 
USAN, INN, BAN

>  <tradename>  (941) 
DIPIPERON

>  <SMILES>  (941) 
NC(=O)C1(N2CCCCC2)CCN(CCCC(=O)c2ccc(F)cc2)CC1

>  <standardized_failed>  (941) 
False

$$$$

     RDKit          2D

  6  5  0  0  0  0  0  0  0  0999 V2000
   -0.3833   -1.6792    0.0000 C   0  0  0  0  0  0  0  0  0  0  0  0
   -0.9625   -1.0917    0.0000 O   0  0  0  0  0  0  0  0  0  0  0  0
   -0.5958   -2.4750    0.0000 N   0  0  0  0  0  0  0  0  0  0  0  0
    0.4167   -1.4667    0.0000 O   0  0  0  0  0  0  0  0  0  0  0  0
    1.0000   -2.0417    0.0000 C   0  0  0  0  0  0  0  0  0  0  0  0
    1.7917   -1.8292    0.0000 C   0  0  0  0  0  0  0  0  0  0  0  0
  2  1  2  0
  3  1  1  0
  4  1  1  0
  5  4  1  0
  6  5  1  0
M  END
>  <ID>  (942) 


>  <MOLENAME>  (942) 
URETHANE

>  <therap>  (942) 
antineoplastic, cytotoxic

>  <ref>  (942) 
J Pharmacol Exp Ther 42:1 (1931); Adv Cancer Res 11:1 (1968)

>  <cas#>  (942) 
51-79-6

>  <source>  (942) 
synthetic; NSC-746

>  <status>  (942) 
NF-XIII, INN

>  <tradename>  (942) 
nan

>  <SMILES>  (942) 
CCOC(N)=O

>  <standardized_failed>  (942) 
False

$$$$

     RDKit          2D

 22 24  0  0  0  0  0  0  0  0999 V2000
    7.7542   -3.4042    0.0000 C   0  0  0  0  0  0  0  0  0  0  0  0
    6.9542   -3.2250    0.0000 N   0  0  0  0  0  0  0  0  0  0  0  0
    8.1792   -2.6917    0.0000 C   0  0  0  0  0  0  0  0  0  0  0  0
    6.3167   -4.5542    0.0000 C   0  0  0  0  0  0  0  0  0  0  0  0
    7.6375   -2.0667    0.0000 N   0  0  0  0  0  0  0  0  0  0  0  0
    6.9542   -5.0542    0.0000 C   0  0  0  0  0  0  0  0  0  0  0  0
    6.3167   -3.7292    0.0000 C   0  0  0  0  0  0  0  0  0  0  0  0
    7.7542   -4.8750    0.0000 N   0  0  0  0  0  0  0  0  0  0  0  0
    6.8792   -2.4000    0.0000 C   0  0  0  0  0  0  0  0  0  0  0  0
    8.1167   -4.1292    0.0000 C   0  0  0  0  0  0  0  0  0  0  0  0
    9.0000   -2.6167    0.0000 C   0  0  0  0  0  0  0  0  0  0  0  0
    5.6125   -4.9542    0.0000 C   0  0  0  0  0  0  0  0  0  0  0  0
    5.6125   -3.3250    0.0000 C   0  0  0  0  0  0  0  0  0  0  0  0
    6.7750   -5.8625    0.0000 O   0  0  0  0  0  0  0  0  0  0  0  0
    9.3417   -1.8667    0.0000 O   0  0  0  0  0  0  0  0  0  0  0  0
    4.8917   -4.5417    0.0000 C   0  0  0  0  0  0  0  0  0  0  0  0
    4.8917   -3.7375    0.0000 C   0  0  0  0  0  0  0  0  0  0  0  0
    9.4750   -3.2917    0.0000 O   0  0  0  0  0  0  0  0  0  0  0  0
    8.2667   -5.5167    0.0000 C   0  0  0  0  0  0  0  0  0  0  0  0
    4.1792   -4.9542    0.0000 F   0  0  0  0  0  0  0  0  0  0  0  0
   10.2917   -3.2167    0.0000 C   0  0  0  0  0  0  0  0  0  0  0  0
   10.7667   -3.8917    0.0000 C   0  0  0  0  0  0  0  0  0  0  0  0
  2  1  1  0
  3  1  2  0
  4  7  2  0
  5  3  1  0
  6  8  1  0
  7  2  1  0
  8 10  1  0
  9  2  1  0
 10  1  1  0
 11  3  1  0
 12  4  1  0
 13  7  1  0
 14  6  2  0
 15 11  2  0
 16 17  1  0
 17 13  2  0
 18 11  1  0
 19  8  1  0
 20 16  1  0
 21 18  1  0
 22 21  1  0
  9  5  2  0
  6  4  1  0
 12 16  2  0
M  END
>  <ID>  (943) 


>  <MOLENAME>  (943) 
FlUMAZENIL

>  <therap>  (943) 
benzodiazepine antagonist

>  <ref>  (943) 
Eur. J. Pharmacol. (1983), 90(2-3), 263-8; Neuroendocrinology (1982), 35(1), 32-6; Nature (1981), 294(5843), 763-5

>  <cas#>  (943) 
78755-81-4

>  <source>  (943) 
synthetic; Ro-15-1788/000

>  <status>  (943) 
USP, INN, BAN

>  <tradename>  (943) 
ROMAZICON

>  <SMILES>  (943) 
CCOC(=O)c1c2CN(C)C(=O)c3c(ccc(F)c3)-n2cn1

>  <standardized_failed>  (943) 
False

$$$$

     RDKit          2D

 23 26  0  0  0  0  0  0  0  0999 V2000
    3.5292   -5.1417    0.0000 C   0  0  0  0  0  0  0  0  0  0  0  0
    2.8167   -5.5542    0.0000 C   0  0  0  0  0  0  0  0  0  0  0  0
    4.9667   -4.3292    0.0000 C   0  0  0  0  0  0  0  0  0  0  0  0
    2.8167   -6.3792    0.0000 C   0  0  0  0  0  0  0  0  0  0  0  0
    4.2417   -5.5625    0.0000 C   0  0  0  0  0  0  0  0  0  0  0  0
    4.9625   -5.1542    0.0000 C   0  0  0  0  0  0  0  0  0  0  0  0
    3.5375   -4.3167    0.0000 C   0  0  0  0  0  0  0  0  0  0  0  0
    4.2625   -3.9125    0.0000 C   0  0  0  0  0  0  0  0  0  0  0  0
    5.7542   -4.0875    0.0000 C   0  0  0  0  0  0  0  0  0  0  0  0
    2.1042   -6.7875    0.0000 C   0  0  0  0  0  0  0  0  0  0  0  0
    2.1042   -5.1375    0.0000 C   0  0  0  0  0  0  0  0  0  0  0  0
    4.2417   -6.3792    0.0000 C   0  0  0  0  0  0  0  0  0  0  0  0
    5.7417   -5.4167    0.0000 C   0  0  0  0  0  0  0  0  0  0  0  0
    3.5292   -6.7917    0.0000 C   0  0  0  0  0  0  0  0  0  0  0  0
    1.4000   -6.3792    0.0000 C   0  0  0  0  0  0  0  0  0  0  0  0
    6.2292   -4.7542    0.0000 C   0  0  0  0  0  0  0  0  0  0  0  0
    0.6792   -6.7917    0.0000 O   0  0  0  0  0  0  0  0  0  0  0  0
    7.1292   -4.4542    0.0000 C   0  0  0  0  0  0  0  0  0  0  0  0
    7.9292   -4.2375    0.0000 C   0  0  0  0  0  0  0  0  0  0  0  0
    1.4000   -5.5542    0.0000 C   0  0  0  0  0  0  0  0  0  0  0  0
    5.5375   -3.2875    0.0000 O   0  0  0  0  0  0  0  0  0  0  0  0
    4.9667   -3.5042    0.0000 C   0  0  0  0  0  0  0  0  0  0  0  0
    6.5500   -3.8667    0.0000 C   0  0  0  0  0  0  0  0  0  0  0  0
  2  1  2  0
  3  8  1  0
  4  2  1  0
  5  1  1  0
  6  5  1  0
  7  1  1  0
  8  7  2  0
  9  3  1  0
 10  4  2  0
 11  2  1  0
 12  5  1  0
 13  6  1  0
 14 12  1  0
 15 20  1  0
 16 13  1  0
 17 15  2  0
 18 23  1  0
 19 18  2  0
 20 11  1  0
  9 21  1  1
  3 22  1  1
  9 23  1  0
  3  6  1  0
 14  4  1  0
  9 16  1  0
 15 10  1  0
M  END
>  <ID>  (944) 


>  <MOLENAME>  (944) 
ALTRENOGEST

>  <therap>  (944) 
progestinantineoplastic

>  <ref>  (944) 
J Anim Sci 49:729 (1979); 52:831 (1981)

>  <cas#>  (944) 
850-52-2

>  <source>  (944) 
synthetic; RU-2267, A-35957

>  <status>  (944) 
USAN, INN, BAN

>  <tradename>  (944) 
REGUMATE

>  <SMILES>  (944) 
C=CC[C@]1(O)CCC2C3CCC4=CC(=O)CCC4=C3C=C[C@@]21C

>  <standardized_failed>  (944) 
False

$$$$

     RDKit          2D

 31 30  0  0  0  0  0  0  0  0999 V2000
    7.2542   -6.7542    0.0000 C   0  0  0  0  0  0  0  0  0  0  0  0
    8.9375   -6.1792    0.0000 C   0  0  0  0  0  0  0  0  0  0  0  0
    8.2667   -6.1792    0.0000 C   0  0  0  0  0  0  0  0  0  0  0  0
    7.9292   -6.7625    0.0000 C   0  0  0  0  0  0  0  0  0  0  0  0
    9.2750   -5.6042    0.0000 O   0  0  0  0  0  0  0  0  0  0  0  0
    6.9167   -6.1667    0.0000 O   0  0  0  0  0  0  0  0  0  0  0  0
   10.0417   -3.4792    0.0000 N   0  0  0  0  0  0  0  0  0  0  0  0
    7.1917   -3.4875    0.0000 O   0  0  0  0  0  0  0  0  0  0  0  0
    8.6167   -3.4792    0.0000 C   0  0  0  0  0  0  0  0  0  0  0  0
    6.4792   -3.9000    0.0000 C   0  0  0  0  0  0  0  0  0  0  0  0
    9.3292   -3.8917    0.0000 C   0  0  0  0  0  0  0  0  0  0  0  0
    7.9042   -3.8917    0.0000 C   0  0  0  0  0  0  0  0  0  0  0  0
    9.2667   -6.7667    0.0000 O   0  0  0  0  0  0  0  0  0  0  0  0
    6.9167   -7.3292    0.0000 O   0  0  0  0  0  0  0  0  0  0  0  0
    5.0500   -4.7292    0.0000 C   0  0  0  0  0  0  0  0  0  0  0  0
    5.7625   -3.4875    0.0000 C   0  0  0  0  0  0  0  0  0  0  0  0
    6.4792   -4.7292    0.0000 C   0  0  0  0  0  0  0  0  0  0  0  0
    5.0500   -3.9000    0.0000 C   0  0  0  0  0  0  0  0  0  0  0  0
    5.7625   -5.1417    0.0000 C   0  0  0  0  0  0  0  0  0  0  0  0
    8.6125   -2.6542    0.0000 O   0  0  0  0  0  0  0  0  0  0  0  0
    1.4875   -5.1292    0.0000 O   0  0  0  0  0  0  0  0  0  0  0  0
   10.7542   -3.8875    0.0000 C   0  0  0  0  0  0  0  0  0  0  0  0
    3.6250   -4.7250    0.0000 O   0  0  0  0  0  0  0  0  0  0  0  0
    4.3375   -5.1375    0.0000 C   0  0  0  0  0  0  0  0  0  0  0  0
    0.7750   -4.7167    0.0000 C   0  0  0  0  0  0  0  0  0  0  0  0
    2.1917   -4.7167    0.0000 C   0  0  0  0  0  0  0  0  0  0  0  0
    2.9125   -5.1292    0.0000 C   0  0  0  0  0  0  0  0  0  0  0  0
   10.7542   -4.7125    0.0000 C   0  0  0  0  0  0  0  0  0  0  0  0
   11.4667   -3.4750    0.0000 C   0  0  0  0  0  0  0  0  0  0  0  0
    0.7750   -3.8917    0.0000 C   0  0  0  0  0  0  0  0  0  0  0  0
    0.0542   -5.1250    0.0000 C   0  0  0  0  0  0  0  0  0  0  0  0
  2  3  1  0
  3  4  2  0
  4  1  1  0
  5  2  2  0
  6  1  2  0
  8 12  1  0
  9 11  1  0
 10  8  1  0
 11  7  1  0
 12  9  1  0
 13  2  1  0
 14  1  1  0
 15 19  1  0
 16 10  2  0
 17 10  1  0
 18 16  1  0
 19 17  2  0
 20  9  1  0
 21 26  1  0
 22  7  1  0
 23 24  1  0
 24 15  1  0
 25 21  1  0
 26 27  1  0
 27 23  1  0
 28 22  1  0
 29 22  1  0
 30 25  1  0
 31 25  1  0
 15 18  2  0
M  END
>  <ID>  (945) 


>  <MOLENAME>  (945) 
BISOPROLOL FUMARATE

>  <therap>  (945) 
beta-blocker, antihypertensive

>  <ref>  (945) 
Br J Clin Pharmacol 18:343 (1984); Eur J Clin Pharmacol 27:135 (1984); Eur Heart J 6:8845 (1985)

>  <cas#>  (945) 
104344-23-2

>  <source>  (945) 
synthetic; CL-297939,  EMD-33512

>  <status>  (945) 
USP, JAN

>  <tradename>  (945) 
ZEBETA

>  <SMILES>  (945) 
CC(C)NCC(O)COc1ccc(COCCOC(C)C)cc1

>  <standardized_failed>  (945) 
False

$$$$

     RDKit          2D

 24 26  0  0  0  0  0  0  0  0999 V2000
    6.6167   -3.6750    0.0000 N   0  0  0  0  0  0  0  0  0  0  0  0
    7.2000   -4.2542    0.0000 C   0  0  0  0  0  0  0  0  0  0  0  0
    5.8167   -3.8917    0.0000 C   0  0  0  0  0  0  0  0  0  0  0  0
    7.9292   -3.8792    0.0000 C   0  0  0  0  0  0  0  0  0  0  0  0
    7.1542   -5.0667    0.0000 N   0  0  0  0  0  0  0  0  0  0  0  0
    7.8042   -3.0667    0.0000 N   0  0  0  0  0  0  0  0  0  0  0  0
    5.5625   -4.6792    0.0000 C   0  0  0  0  0  0  0  0  0  0  0  0
    6.9917   -2.9417    0.0000 C   0  0  0  0  0  0  0  0  0  0  0  0
    8.5667   -5.1417    0.0000 N   0  0  0  0  0  0  0  0  0  0  0  0
    5.1500   -3.4042    0.0000 O   0  0  0  0  0  0  0  0  0  0  0  0
    8.6125   -4.3292    0.0000 C   0  0  0  0  0  0  0  0  0  0  0  0
    7.8375   -5.5167    0.0000 C   0  0  0  0  0  0  0  0  0  0  0  0
    4.4875   -3.8917    0.0000 C   0  0  0  0  0  0  0  0  0  0  0  0
    4.7375   -4.6792    0.0000 C   0  0  0  0  0  0  0  0  0  0  0  0
    2.3042   -3.9292    0.0000 P   0  0  0  0  0  0  0  0  0  0  0  0
    3.7042   -3.6375    0.0000 C   0  0  0  0  0  0  0  0  0  0  0  0
    3.0917   -4.1875    0.0000 O   0  0  0  0  0  0  0  0  0  0  0  0
    2.1292   -3.1250    0.0000 O   0  0  0  0  0  0  0  0  0  0  0  0
    6.0500   -5.3417    0.0000 O   0  0  0  0  0  0  0  0  0  0  0  0
    9.3500   -3.9542    0.0000 N   0  0  0  0  0  0  0  0  0  0  0  0
    7.7917   -6.3417    0.0000 F   0  0  0  0  0  0  0  0  0  0  0  0
    1.6917   -4.4792    0.0000 O   0  0  0  0  0  0  0  0  0  0  0  0
    2.5167   -4.7292    0.0000 O   0  0  0  0  0  0  0  0  0  0  0  0
    4.2542   -5.3417    0.0000 O   0  0  0  0  0  0  0  0  0  0  0  0
  2  1  1  0
  3  1  1  1
  4  2  1  0
  5  2  2  0
  6  8  2  0
  7  3  1  0
  8  1  1  0
  9 12  2  0
 10  3  1  0
 11  4  2  0
 12  5  1  0
 13 10  1  0
 14  7  1  0
 15 17  1  0
 13 16  1  1
 17 16  1  0
 18 15  2  0
  7 19  1  1
 20 11  1  0
 21 12  1  0
 22 15  1  0
 23 15  1  0
 14 24  1  6
  6  4  1  0
 14 13  1  0
 11  9  1  0
M  END
>  <ID>  (946) 


>  <MOLENAME>  (946) 
FLUDARABINE PHOSPHATE

>  <therap>  (946) 
antineoplastic

>  <ref>  (946) 
Semin. Oncol. (1993), 20(5, Suppl. 7), 2-12; Cancer Res. (1980), 40(10), 3610-15; Cancer Res. (1984), 44(9), 4183-6

>  <cas#>  (946) 
75607-67-9

>  <source>  (946) 
synthetic; NSC-312887

>  <status>  (946) 
USP, INN, BAN

>  <tradename>  (946) 
FLUDARA

>  <SMILES>  (946) 
Nc1c2ncn([C@@H]3O[C@H](COP(=O)(O)O)[C@@H](O)[C@@H]3O)c2nc(F)n1

>  <standardized_failed>  (946) 
False

$$$$

     RDKit          2D

 31 34  0  0  0  0  0  0  0  0999 V2000
    7.1667   -5.9167    0.0000 C   0  0  0  0  0  0  0  0  0  0  0  0
    5.7292   -6.7250    0.0000 C   0  0  0  0  0  0  0  0  0  0  0  0
    5.0167   -7.1375    0.0000 C   0  0  0  0  0  0  0  0  0  0  0  0
    7.1542   -6.7417    0.0000 C   0  0  0  0  0  0  0  0  0  0  0  0
    7.9500   -5.6667    0.0000 C   0  0  0  0  0  0  0  0  0  0  0  0
    6.4375   -7.1417    0.0000 C   0  0  0  0  0  0  0  0  0  0  0  0
    5.0125   -7.9625    0.0000 C   0  0  0  0  0  0  0  0  0  0  0  0
    5.7375   -5.9000    0.0000 C   0  0  0  0  0  0  0  0  0  0  0  0
    6.4542   -5.4917    0.0000 C   0  0  0  0  0  0  0  0  0  0  0  0
    8.4250   -6.3417    0.0000 C   0  0  0  0  0  0  0  0  0  0  0  0
    4.3042   -6.7167    0.0000 C   0  0  0  0  0  0  0  0  0  0  0  0
    7.9375   -7.0000    0.0000 C   0  0  0  0  0  0  0  0  0  0  0  0
    7.9417   -4.8417    0.0000 C   0  0  0  0  0  0  0  0  0  0  0  0
    4.3042   -8.3667    0.0000 C   0  0  0  0  0  0  0  0  0  0  0  0
    6.4417   -7.9667    0.0000 C   0  0  0  0  0  0  0  0  0  0  0  0
    3.5917   -7.1375    0.0000 C   0  0  0  0  0  0  0  0  0  0  0  0
    3.5917   -7.9625    0.0000 C   0  0  0  0  0  0  0  0  0  0  0  0
    5.7250   -8.3750    0.0000 C   0  0  0  0  0  0  0  0  0  0  0  0
   10.0792   -4.4167    0.0000 C   0  0  0  0  0  0  0  0  0  0  0  0
    5.7250   -7.5500    0.0000 F   0  0  0  0  0  0  0  0  0  0  0  0
    8.6542   -4.4250    0.0000 C   0  0  0  0  0  0  0  0  0  0  0  0
    7.2250   -4.4375    0.0000 O   0  0  0  0  0  0  0  0  0  0  0  0
    9.3667   -4.8292    0.0000 O   0  0  0  0  0  0  0  0  0  0  0  0
   10.0792   -3.5917    0.0000 O   0  0  0  0  0  0  0  0  0  0  0  0
    2.8792   -8.3750    0.0000 O   0  0  0  0  0  0  0  0  0  0  0  0
    8.7750   -5.6667    0.0000 O   0  0  0  0  0  0  0  0  0  0  0  0
    7.1625   -5.0917    0.0000 C   0  0  0  0  0  0  0  0  0  0  0  0
    5.0167   -5.4875    0.0000 O   0  0  0  0  0  0  0  0  0  0  0  0
    5.0125   -6.3125    0.0000 C   0  0  0  0  0  0  0  0  0  0  0  0
    9.2500   -6.3417    0.0000 C   0  0  0  0  0  0  0  0  0  0  0  0
   10.8000   -4.8167    0.0000 C   0  0  0  0  0  0  0  0  0  0  0  0
  2  8  1  0
  3  2  1  0
  4  1  1  0
  5  1  1  0
  6  4  1  0
  7  3  1  0
  8  9  1  0
  9  1  1  0
 10  5  1  0
 11  3  1  0
 12  4  1  0
  5 13  1  0
 14  7  2  0
 15  6  1  0
 16 11  2  0
 17 16  1  0
 18 15  1  0
 19 23  1  0
  2 20  1  6
 21 13  1  0
 22 13  2  0
 23 21  1  0
 24 19  2  0
 25 17  2  0
  5 26  1  6
  1 27  1  1
  8 28  1  1
  3 29  1  1
 10 30  1  1
 31 19  1  0
 10 12  1  0
  2  6  1  0
 18  7  1  0
 17 14  1  0
M  END
>  <ID>  (947) 


>  <MOLENAME>  (947) 
BETAMETHASONE ACETATE

>  <therap>  (947) 
antiinflammatory

>  <ref>  (947) 
Drug Dev Ind Pharmacy 31:813 (2005); Clin Rheumatol 28:85 (2009)

>  <cas#>  (947) 
987-24-6

>  <source>  (947) 
semisynthetic

>  <status>  (947) 
USP, BAN, JAN

>  <tradename>  (947) 
CELESTOVET

>  <SMILES>  (947) 
CC(=O)OCC(=O)[C@@]1(O)[C@@H](C)CC2C3CCC4=CC(=O)C=C[C@]4(C)[C@@]3(F)[C@@H](O)C[C@@]21C

>  <standardized_failed>  (947) 
False

$$$$

     RDKit          2D

  9  8  0  0  0  0  0  0  0  0999 V2000
    4.0792   -1.6375    0.0000 C   0  0  0  0  0  0  0  0  0  0  0  0
    4.0792   -0.8125    0.0000 O   0  0  0  0  0  0  0  0  0  0  0  0
    1.2292   -1.6417    0.0000 C   0  0  0  0  0  0  0  0  0  0  0  0
    0.5167   -2.0542    0.0000 C   0  0  0  0  0  0  0  0  0  0  0  0
    3.3667   -2.0500    0.0000 C   0  0  0  0  0  0  0  0  0  0  0  0
    4.7917   -2.0417    0.0000 O   0  0  0  0  0  0  0  0  0  0  0  0
    1.9417   -2.8792    0.0000 N   0  0  0  0  0  0  0  0  0  0  0  0
    1.9417   -2.0542    0.0000 C   0  0  0  0  0  0  0  0  0  0  0  0
    2.6542   -1.6417    0.0000 C   0  0  0  0  0  0  0  0  0  0  0  0
  2  1  2  0
  3  8  1  0
  4  3  2  0
  5  1  1  0
  6  1  1  0
  7  8  1  0
  8  9  1  0
  9  5  1  0
M  END
>  <ID>  (948) 


>  <MOLENAME>  (948) 
VIGABATRIN

>  <therap>  (948) 
anticonvulsant

>  <ref>  (948) 
Neuropharmacology 21:803 (1982); Clin Neuropharmacol 8:1 (1985); Drugs 41:889 (1991)

>  <cas#>  (948) 
60643-86-9

>  <source>  (948) 
synthetic; MDL-71754

>  <status>  (948) 
USAN, INN, BAN

>  <tradename>  (948) 
nan

>  <SMILES>  (948) 
C=CC(N)CCC(=O)O

>  <standardized_failed>  (948) 
False

$$$$

     RDKit          2D

 13 13  0  0  0  0  0  0  0  0999 V2000
    4.5167   -3.8375    0.0000 C   0  0  0  0  0  0  0  0  0  0  0  0
    3.7417   -4.1125    0.0000 C   0  0  0  0  0  0  0  0  0  0  0  0
    4.5292   -3.0417    0.0000 O   0  0  0  0  0  0  0  0  0  0  0  0
    3.1125   -3.5750    0.0000 C   0  0  0  0  0  0  0  0  0  0  0  0
    2.4000   -3.9875    0.0000 C   0  0  0  0  0  0  0  0  0  0  0  0
    3.7417   -4.9667    0.0000 N   0  0  0  0  0  0  0  0  0  0  0  0
    5.1875   -4.3167    0.0000 O   0  0  0  0  0  0  0  0  0  0  0  0
    0.9792   -4.8125    0.0000 C   0  0  0  0  0  0  0  0  0  0  0  0
    1.6875   -3.5750    0.0000 C   0  0  0  0  0  0  0  0  0  0  0  0
    2.4000   -4.8125    0.0000 C   0  0  0  0  0  0  0  0  0  0  0  0
    1.6875   -5.2250    0.0000 C   0  0  0  0  0  0  0  0  0  0  0  0
    0.9792   -3.9875    0.0000 C   0  0  0  0  0  0  0  0  0  0  0  0
    0.2625   -5.2250    0.0000 O   0  0  0  0  0  0  0  0  0  0  0  0
  2  1  1  0
  3  1  2  0
  4  2  1  0
  5  4  1  0
  6  2  1  0
  7  1  1  0
  8 11  1  0
  9  5  2  0
 10  5  1  0
 11 10  2  0
 12  9  1  0
 13  8  1  0
 12  8  2  0
M  END
>  <ID>  (949) 


>  <MOLENAME>  (949) 
TYROSINE

>  <therap>  (949) 
amino acid, nutrient

>  <ref>  (949) 
nan

>  <cas#>  (949) 
60-18-4

>  <source>  (949) 
widespread in nature

>  <status>  (949) 
USP

>  <tradename>  (949) 
nan

>  <SMILES>  (949) 
NC(Cc1ccc(O)cc1)C(=O)O

>  <standardized_failed>  (949) 
False

$$$$

     RDKit          2D

 40 43  0  0  0  0  0  0  0  0999 V2000
    4.7292   -5.0167    0.0000 C   0  0  0  0  0  0  0  0  0  0  0  0
    4.7375   -5.8417    0.0000 C   0  0  0  0  0  0  0  0  0  0  0  0
    4.0250   -6.2625    0.0000 C   0  0  0  0  0  0  0  0  0  0  0  0
    4.0167   -4.6042    0.0000 C   0  0  0  0  0  0  0  0  0  0  0  0
    6.1667   -5.8292    0.0000 C   0  0  0  0  0  0  0  0  0  0  0  0
    6.1625   -5.0042    0.0000 C   0  0  0  0  0  0  0  0  0  0  0  0
    3.3042   -5.8500    0.0000 C   0  0  0  0  0  0  0  0  0  0  0  0
    5.4417   -4.6000    0.0000 C   0  0  0  0  0  0  0  0  0  0  0  0
    5.4542   -6.2542    0.0000 C   0  0  0  0  0  0  0  0  0  0  0  0
    3.3042   -5.0250    0.0000 C   0  0  0  0  0  0  0  0  0  0  0  0
    7.6000   -4.9917    0.0000 C   0  0  0  0  0  0  0  0  0  0  0  0
    6.8875   -6.2417    0.0000 C   0  0  0  0  0  0  0  0  0  0  0  0
    6.8792   -4.5792    0.0000 C   0  0  0  0  0  0  0  0  0  0  0  0
    7.6042   -7.4792    0.0000 C   0  0  0  0  0  0  0  0  0  0  0  0
    7.6042   -8.3042    0.0000 O   0  0  0  0  0  0  0  0  0  0  0  0
    7.6042   -5.8292    0.0000 C   0  0  0  0  0  0  0  0  0  0  0  0
    8.3125   -7.0625    0.0000 C   0  0  0  0  0  0  0  0  0  0  0  0
    9.0292   -8.3000    0.0000 C   0  0  0  0  0  0  0  0  0  0  0  0
    9.0292   -7.4750    0.0000 C   0  0  0  0  0  0  0  0  0  0  0  0
    8.3125   -8.7125    0.0000 C   0  0  0  0  0  0  0  0  0  0  0  0
    8.3125   -4.5792    0.0000 C   0  0  0  0  0  0  0  0  0  0  0  0
    6.8875   -7.0667    0.0000 O   0  0  0  0  0  0  0  0  0  0  0  0
    4.0125   -3.7792    0.0000 O   0  0  0  0  0  0  0  0  0  0  0  0
    4.0250   -7.0875    0.0000 O   0  0  0  0  0  0  0  0  0  0  0  0
    2.5917   -6.2667    0.0000 C   0  0  0  0  0  0  0  0  0  0  0  0
    9.0292   -4.9917    0.0000 O   0  0  0  0  0  0  0  0  0  0  0  0
    5.4375   -3.7750    0.0000 O   0  0  0  0  0  0  0  0  0  0  0  0
    5.4625   -7.0792    0.0000 O   0  0  0  0  0  0  0  0  0  0  0  0
    8.3125   -5.4042    0.0000 O   0  0  0  0  0  0  0  0  0  0  0  0
    9.7417   -7.0542    0.0000 N   0  0  0  0  0  0  0  0  0  0  0  0
    9.7417   -8.7125    0.0000 O   0  0  0  0  0  0  0  0  0  0  0  0
    2.5917   -4.6125    0.0000 C   0  0  0  0  0  0  0  0  0  0  0  0
   11.4417   -7.1042    0.0000 Cl  0  0  0  0  0  0  0  0  0  0  0  0
    2.5917   -7.0917    0.0000 O   0  0  0  0  0  0  0  0  0  0  0  0
    8.3042   -3.7542    0.0000 C   0  0  0  0  0  0  0  0  0  0  0  0
    7.5917   -3.3417    0.0000 O   0  0  0  0  0  0  0  0  0  0  0  0
    8.3125   -9.5375    0.0000 C   0  0  0  0  0  0  0  0  0  0  0  0
    1.8792   -5.0250    0.0000 C   0  0  0  0  0  0  0  0  0  0  0  0
    1.8792   -5.8542    0.0000 C   0  0  0  0  0  0  0  0  0  0  0  0
    1.8792   -7.5042    0.0000 C   0  0  0  0  0  0  0  0  0  0  0  0
  2  1  2  0
  3  2  1  0
  4  1  1  0
  5  6  1  0
  6  8  2  0
  7 10  2  0
  8  1  1  0
  9  2  1  0
 10  4  1  0
 11 13  1  0
 12  5  1  0
 13  6  1  0
 14 22  1  1
 15 14  1  0
 16 11  1  0
 17 14  1  0
 18 19  1  0
 19 17  1  0
 20 15  1  0
 11 21  1  0
 12 22  1  6
 23  4  2  0
 24  3  2  0
 25  7  1  0
 26 21  2  0
 27  8  1  0
 28  9  1  0
 11 29  1  6
 19 30  1  6
 18 31  1  1
 32 10  1  0
 34 25  1  0
 35 21  1  0
 36 35  1  0
 20 37  1  6
 38 32  2  0
 39 38  1  0
 40 34  1  0
  5  9  2  0
  7  3  1  0
 16 12  1  0
 25 39  2  0
 18 20  1  0
M  END
>  <ID>  (950) 


>  <MOLENAME>  (950) 
EPIRUBICIN HYDROCHLORIDE

>  <therap>  (950) 
antineoplastic

>  <ref>  (950) 
Pharmacol. Rev. (2004), 56(2), 185-229; Cancer Res. (1976), 36(6), 1962-6; J. Med. Chem. (1975), 18(7), 703-7

>  <cas#>  (950) 
56390-09-1

>  <source>  (950) 
synthetic; IMI-28

>  <status>  (950) 
USAN, INN, BAN, JAN

>  <tradename>  (950) 
ELLENCE

>  <SMILES>  (950) 
COc1cccc2c1C(=O)c1c(C2=O)c(O)c2C[C@@](O)(C(=O)CO)C[C@H](O[C@H]3C[C@H](N)[C@@H](O)[C@H](C)O3)c2c1O

>  <standardized_failed>  (950) 
False

$$$$

     RDKit          2D

 41 45  0  0  0  0  0  0  0  0999 V2000
    5.9042   -1.6542    0.0000 C   0  0  0  0  0  0  0  0  0  0  0  0
    3.7542   -2.8750    0.0000 C   0  0  0  0  0  0  0  0  0  0  0  0
    5.8917   -2.4792    0.0000 C   0  0  0  0  0  0  0  0  0  0  0  0
    6.6875   -1.4042    0.0000 C   0  0  0  0  0  0  0  0  0  0  0  0
    7.1625   -2.0792    0.0000 C   0  0  0  0  0  0  0  0  0  0  0  0
    4.4667   -2.4625    0.0000 C   0  0  0  0  0  0  0  0  0  0  0  0
    5.1750   -2.8792    0.0000 C   0  0  0  0  0  0  0  0  0  0  0  0
    7.9875   -2.0792    0.0000 N   0  0  0  0  0  0  0  0  0  0  0  0
    2.3292   -2.8750    0.0000 C   0  0  0  0  0  0  0  0  0  0  0  0
    2.3292   -3.7000    0.0000 C   0  0  0  0  0  0  0  0  0  0  0  0
    6.6750   -2.7375    0.0000 C   0  0  0  0  0  0  0  0  0  0  0  0
    3.0417   -2.4542    0.0000 C   0  0  0  0  0  0  0  0  0  0  0  0
    3.7500   -3.7000    0.0000 C   0  0  0  0  0  0  0  0  0  0  0  0
    1.6167   -2.4625    0.0000 N   0  0  0  0  0  0  0  0  0  0  0  0
    5.1917   -1.2292    0.0000 C   0  0  0  0  0  0  0  0  0  0  0  0
    6.9500   -0.6292    0.0000 O   0  0  0  0  0  0  0  0  0  0  0  0
    3.0417   -4.1042    0.0000 C   0  0  0  0  0  0  0  0  0  0  0  0
    4.4750   -1.6375    0.0000 C   0  0  0  0  0  0  0  0  0  0  0  0
    1.6167   -4.1125    0.0000 O   0  0  0  0  0  0  0  0  0  0  0  0
    5.1792   -3.7042    0.0000 C   0  0  0  0  0  0  0  0  0  0  0  0
    6.4042   -0.0042    0.0000 C   0  0  0  0  0  0  0  0  0  0  0  0
    1.6167   -4.9375    0.0000 C   0  0  0  0  0  0  0  0  0  0  0  0
    4.4625   -4.1125    0.0000 C   0  0  0  0  0  0  0  0  0  0  0  0
   11.0125   -1.7792    0.0000 Br  0  0  0  0  0  0  0  0  0  0  0  0
    2.3292   -5.3500    0.0000 O   0  0  0  0  0  0  0  0  0  0  0  0
    5.5917   -0.1667    0.0000 O   0  0  0  0  0  0  0  0  0  0  0  0
    5.9000   -0.8292    0.0000 C   0  0  0  0  0  0  0  0  0  0  0  0
    3.7500   -2.0500    0.0000 C   0  0  0  0  0  0  0  0  0  0  0  0
    7.5667   -2.7917    0.0000 C   0  0  0  0  0  0  0  0  0  0  0  0
    7.9792   -1.2542    0.0000 C   0  0  0  0  0  0  0  0  0  0  0  0
    8.7000   -2.4917    0.0000 C   0  0  0  0  0  0  0  0  0  0  0  0
    1.6167   -1.6292    0.0000 C   0  0  0  0  0  0  0  0  0  0  0  0
    0.9000   -2.8750    0.0000 C   0  0  0  0  0  0  0  0  0  0  0  0
    0.9042   -5.3500    0.0000 C   0  0  0  0  0  0  0  0  0  0  0  0
    6.6667    0.7708    0.0000 C   0  0  0  0  0  0  0  0  0  0  0  0
    9.4125   -2.0792    0.0000 C   0  0  0  0  0  0  0  0  0  0  0  0
    8.7042   -0.8417    0.0000 C   0  0  0  0  0  0  0  0  0  0  0  0
    0.1792   -2.4542    0.0000 C   0  0  0  0  0  0  0  0  0  0  0  0
    0.9042   -1.2167    0.0000 C   0  0  0  0  0  0  0  0  0  0  0  0
    9.4167   -1.2542    0.0000 C   0  0  0  0  0  0  0  0  0  0  0  0
    0.1792   -1.6292    0.0000 C   0  0  0  0  0  0  0  0  0  0  0  0
  2  6  1  0
  3  1  1  0
  4  1  1  0
  5  4  1  0
  6 18  1  0
  7  3  1  0
  5  8  1  1
  9 12  1  0
 10 17  1  0
 11  3  1  0
 12  2  1  0
 13  2  1  0
  9 14  1  1
 15  1  1  0
  4 16  1  1
 17 13  1  0
 18 15  1  0
 10 19  1  6
 20  7  1  0
 21 16  1  0
 22 19  1  0
 23 20  1  0
 25 22  2  0
 26 21  2  0
  1 27  1  1
  2 28  1  1
 29  8  1  0
 30  8  1  0
 31  8  1  0
 32 14  1  0
 33 14  1  0
 34 22  1  0
 35 21  1  0
 36 31  1  0
 37 30  1  0
 38 33  1  0
 39 32  1  0
 40 37  1  0
 41 39  1  0
  5 11  1  0
  6  7  1  0
 23 13  1  0
 36 40  1  0
 10  9  1  0
 38 41  1  0
M  CHG  2   8   1  24  -1
M  END
>  <ID>  (951) 


>  <MOLENAME>  (951) 
VECURONIUM BROMIDE

>  <therap>  (951) 
neuromuscular blocker

>  <ref>  (951) 
Anesthesiology 55:6, 12 (1981)

>  <cas#>  (951) 
50700-72-6

>  <source>  (951) 
synthetic; ORG-NC-45

>  <status>  (951) 
USAN, INN, BAN, JAN

>  <tradename>  (951) 
NORCURON

>  <SMILES>  (951) 
CC(=O)O[C@H]1CC2CCC3C(CC[C@@]4(C)C3C[C@H]([N+]3(C)CCCCC3)[C@@H]4OC(C)=O)[C@@]2(C)C[C@@H]1N1CCCCC1

>  <standardized_failed>  (951) 
False

$$$$

     RDKit          2D

 47 46  0  0  0  0  0  0  0  0999 V2000
   12.1750   -6.1667    0.0000 C   0  0  0  0  0  0  0  0  0  0  0  0
   10.0375   -6.5875    0.0000 C   0  0  0  0  0  0  0  0  0  0  0  0
   12.8875   -6.5792    0.0000 C   0  0  0  0  0  0  0  0  0  0  0  0
    9.3250   -6.1792    0.0000 C   0  0  0  0  0  0  0  0  0  0  0  0
    8.6125   -6.5917    0.0000 C   0  0  0  0  0  0  0  0  0  0  0  0
   10.7500   -6.1750    0.0000 N   0  0  0  0  0  0  0  0  0  0  0  0
    5.7625   -6.6000    0.0000 C   0  0  0  0  0  0  0  0  0  0  0  0
    9.9750   -9.0500    0.0000 C   0  0  0  0  0  0  0  0  0  0  0  0
    8.4917   -8.7625    0.0000 C   0  0  0  0  0  0  0  0  0  0  0  0
    6.4750   -6.1875    0.0000 C   0  0  0  0  0  0  0  0  0  0  0  0
    8.9875   -9.0500    0.0000 C   0  0  0  0  0  0  0  0  0  0  0  0
    9.4792   -8.7625    0.0000 C   0  0  0  0  0  0  0  0  0  0  0  0
    2.9042   -6.6042    0.0000 C   0  0  0  0  0  0  0  0  0  0  0  0
   11.4625   -6.5792    0.0000 C   0  0  0  0  0  0  0  0  0  0  0  0
    7.9000   -6.1792    0.0000 C   0  0  0  0  0  0  0  0  0  0  0  0
    7.1875   -6.5917    0.0000 C   0  0  0  0  0  0  0  0  0  0  0  0
    5.0500   -6.1917    0.0000 C   0  0  0  0  0  0  0  0  0  0  0  0
    2.9042   -7.4292    0.0000 C   0  0  0  0  0  0  0  0  0  0  0  0
    3.6167   -6.1917    0.0000 C   0  0  0  0  0  0  0  0  0  0  0  0
    4.3375   -6.6042    0.0000 C   0  0  0  0  0  0  0  0  0  0  0  0
   12.8875   -7.4042    0.0000 O   0  0  0  0  0  0  0  0  0  0  0  0
   10.0375   -7.4125    0.0000 O   0  0  0  0  0  0  0  0  0  0  0  0
    9.9667   -9.6250    0.0000 O   0  0  0  0  0  0  0  0  0  0  0  0
    8.4917   -8.1917    0.0000 O   0  0  0  0  0  0  0  0  0  0  0  0
    3.6167   -7.8417    0.0000 C   0  0  0  0  0  0  0  0  0  0  0  0
   13.6000   -6.1667    0.0000 N   0  0  0  0  0  0  0  0  0  0  0  0
    9.3167   -5.3542    0.0000 C   0  0  0  0  0  0  0  0  0  0  0  0
    5.7625   -7.4250    0.0000 C   0  0  0  0  0  0  0  0  0  0  0  0
    7.1875   -7.4167    0.0000 N   0  0  0  0  0  0  0  0  0  0  0  0
    4.3375   -7.4292    0.0000 C   0  0  0  0  0  0  0  0  0  0  0  0
   10.4542   -8.7625    0.0000 O   0  0  0  0  0  0  0  0  0  0  0  0
    8.0000   -9.0500    0.0000 O   0  0  0  0  0  0  0  0  0  0  0  0
    2.1917   -6.1917    0.0000 O   0  0  0  0  0  0  0  0  0  0  0  0
    7.8917   -5.3542    0.0000 O   0  0  0  0  0  0  0  0  0  0  0  0
    2.1917   -7.8417    0.0000 O   0  0  0  0  0  0  0  0  0  0  0  0
   12.7542   -5.5792    0.0000 C   0  0  0  0  0  0  0  0  0  0  0  0
   11.5875   -5.5792    0.0000 C   0  0  0  0  0  0  0  0  0  0  0  0
    0.7667   -6.2000    0.0000 C   0  0  0  0  0  0  0  0  0  0  0  0
   -0.6583   -6.2042    0.0000 O   0  0  0  0  0  0  0  0  0  0  0  0
    1.4792   -6.6042    0.0000 C   0  0  0  0  0  0  0  0  0  0  0  0
    0.0542   -6.6125    0.0000 C   0  0  0  0  0  0  0  0  0  0  0  0
   10.0292   -4.9375    0.0000 C   0  0  0  0  0  0  0  0  0  0  0  0
    8.6042   -4.9417    0.0000 C   0  0  0  0  0  0  0  0  0  0  0  0
    6.4792   -7.8292    0.0000 C   0  0  0  0  0  0  0  0  0  0  0  0
    5.0500   -7.8375    0.0000 C   0  0  0  0  0  0  0  0  0  0  0  0
    1.4792   -7.4292    0.0000 C   0  0  0  0  0  0  0  0  0  0  0  0
   -1.3708   -6.6167    0.0000 C   0  0  0  0  0  0  0  0  0  0  0  0
  2  6  1  0
  3  1  1  0
  4  2  1  0
  4  5  1  1
  6 14  1  0
  7 10  1  1
  9 11  1  0
 10 16  1  0
 11 12  2  0
 12  8  1  0
 13 19  2  0
 14  1  1  0
 15  5  1  0
 16 15  1  0
 17  7  1  0
 18 25  2  0
 19 20  1  0
 20 17  1  0
 21  3  2  0
 22  2  2  0
 23  8  2  0
 24  9  2  0
 25 30  1  0
 26  3  1  0
  4 27  1  0
  7 28  1  0
 16 29  1  1
 30 20  2  0
 31  8  1  0
 32  9  1  0
 33 13  1  0
 15 34  1  1
 35 18  1  0
 36  1  1  0
 37  1  1  0
 38 40  1  0
 39 41  1  0
 40 33  1  0
 41 38  1  0
 42 27  1  0
 43 27  1  0
 44 28  1  0
 45 28  1  0
 46 35  1  0
 47 39  1  0
 18 13  1  0
M  END
>  <ID>  (952) 


>  <MOLENAME>  (952) 
ALISKIREN HEMIFUMARATE

>  <therap>  (952) 
renin inhibitor

>  <ref>  (952) 
Curr Opin Invest Drugs 3:1479 (2002); Circulation 111:1012 (2005)

>  <cas#>  (952) 
173334-57-1

>  <source>  (952) 
synthetic

>  <status>  (952) 
USAN, INN

>  <tradename>  (952) 
TEKTURNA

>  <SMILES>  (952) 
COCCCOc1cc(C[C@@H](C[C@H](N)[C@@H](O)C[C@H](C(=O)NCC(C)(C)C(N)=O)C(C)C)C(C)C)ccc1OC

>  <standardized_failed>  (952) 
False

$$$$

     RDKit          2D

 23 20  0  0  0  0  0  0  0  0999 V2000
    6.9167   -1.1792    0.0000 S   0  0  0  0  0  0  0  0  0  0  0  0
    7.6792   -3.4250    0.0000 S   0  0  0  0  0  0  0  0  0  0  0  0
    7.6292   -1.5917    0.0000 O   0  0  0  0  0  0  0  0  0  0  0  0
    8.3917   -3.0125    0.0000 O   0  0  0  0  0  0  0  0  0  0  0  0
    6.2042   -0.7667    0.0000 O   0  0  0  0  0  0  0  0  0  0  0  0
    7.6292   -0.7667    0.0000 O   0  0  0  0  0  0  0  0  0  0  0  0
    6.9667   -3.8292    0.0000 O   0  0  0  0  0  0  0  0  0  0  0  0
    8.3917   -3.8375    0.0000 O   0  0  0  0  0  0  0  0  0  0  0  0
    3.3542   -1.6042    0.0000 C   0  0  0  0  0  0  0  0  0  0  0  0
    4.1167   -3.0125    0.0000 C   0  0  0  0  0  0  0  0  0  0  0  0
    3.3542   -2.4292    0.0000 O   0  0  0  0  0  0  0  0  0  0  0  0
    4.1167   -2.1875    0.0000 O   0  0  0  0  0  0  0  0  0  0  0  0
    6.2042   -1.5917    0.0000 C   0  0  0  0  0  0  0  0  0  0  0  0
    6.9667   -3.0125    0.0000 C   0  0  0  0  0  0  0  0  0  0  0  0
    4.0667   -1.1917    0.0000 N   0  0  0  0  0  0  0  0  0  0  0  0
    4.8292   -3.4250    0.0000 N   0  0  0  0  0  0  0  0  0  0  0  0
    8.4625   -2.0292    0.0000 Ca  0  0  0  0  0 15  0  0  0  0  0  0
    6.2542   -3.4250    0.0000 C   0  0  0  0  0  0  0  0  0  0  0  0
    5.4917   -1.1875    0.0000 C   0  0  0  0  0  0  0  0  0  0  0  0
    5.5417   -3.0125    0.0000 C   0  0  0  0  0  0  0  0  0  0  0  0
    4.7792   -1.6000    0.0000 C   0  0  0  0  0  0  0  0  0  0  0  0
    3.4042   -3.4250    0.0000 C   0  0  0  0  0  0  0  0  0  0  0  0
    2.6417   -1.1917    0.0000 C   0  0  0  0  0  0  0  0  0  0  0  0
  3  1  1  0
  4  2  1  0
  5  1  2  0
  6  1  2  0
  7  2  2  0
  8  2  2  0
  9 15  1  0
 10 16  1  0
 11  9  2  0
 12 10  2  0
 13  1  1  0
 14  2  1  0
 15 21  1  0
 16 20  1  0
 18 14  1  0
 19 13  1  0
 20 18  1  0
 21 19  1  0
 22 10  1  0
 23  9  1  0
M  CHG  3   3  -1   4  -1  17   2
M  END
>  <ID>  (953) 


>  <MOLENAME>  (953) 
ACAMPROSATE CALCIUM

>  <therap>  (953) 
alcohol antagonist

>  <ref>  (953) 
Pharmacol Biochem Behav 32:607 (1989); Lancet 1:1014 (1985); CNS Drugs 19:445, 517 (2005)

>  <cas#>  (953) 
77337-73-6

>  <source>  (953) 
synthetic

>  <status>  (953) 
USAN, INN, BAN

>  <tradename>  (953) 
CAMPRAL

>  <SMILES>  (953) 
CC(=O)NCCCS(=O)(=O)O

>  <standardized_failed>  (953) 
False

$$$$

     RDKit          2D

 32 33  0  0  0  0  0  0  0  0999 V2000
    6.8542   -1.8792    0.0000 C   0  0  0  0  0  0  0  0  0  0  0  0
    4.7125   -3.1292    0.0000 C   0  0  0  0  0  0  0  0  0  0  0  0
    7.6417   -1.6292    0.0000 C   0  0  0  0  0  0  0  0  0  0  0  0
    6.1417   -3.1292    0.0000 C   0  0  0  0  0  0  0  0  0  0  0  0
    6.8542   -2.7167    0.0000 C   0  0  0  0  0  0  0  0  0  0  0  0
    5.4250   -2.7167    0.0000 C   0  0  0  0  0  0  0  0  0  0  0  0
    4.7125   -3.9542    0.0000 C   0  0  0  0  0  0  0  0  0  0  0  0
    6.1792    0.3750    0.0000 P   0  0  0  0  0  0  0  0  0  0  0  0
    6.1375   -1.4667    0.0000 C   0  0  0  0  0  0  0  0  0  0  0  0
    5.4250   -1.8792    0.0000 C   0  0  0  0  0  0  0  0  0  0  0  0
    4.0000   -2.7167    0.0000 C   0  0  0  0  0  0  0  0  0  0  0  0
    7.9792   -0.8792    0.0000 C   0  0  0  0  0  0  0  0  0  0  0  0
    4.0000   -4.3667    0.0000 C   0  0  0  0  0  0  0  0  0  0  0  0
    8.1250   -2.2917    0.0000 C   0  0  0  0  0  0  0  0  0  0  0  0
    7.6417   -2.9667    0.0000 C   0  0  0  0  0  0  0  0  0  0  0  0
    6.1417   -3.9542    0.0000 C   0  0  0  0  0  0  0  0  0  0  0  0
    3.2792   -3.1292    0.0000 C   0  0  0  0  0  0  0  0  0  0  0  0
    3.2792   -3.9542    0.0000 C   0  0  0  0  0  0  0  0  0  0  0  0
    7.4917   -0.2042    0.0000 C   0  0  0  0  0  0  0  0  0  0  0  0
    6.6667   -0.2917    0.0000 O   0  0  0  0  0  0  0  0  0  0  0  0
    6.5125    1.1333    0.0000 O   0  0  0  0  0  0  0  0  0  0  0  0
    5.5917    0.9625    0.0000 O   0  0  0  0  0  0  0  0  0  0  0  0
    5.4250   -4.3667    0.0000 C   0  0  0  0  0  0  0  0  0  0  0  0
    5.7750   -0.3125    0.0000 O   0  0  0  0  0  0  0  0  0  0  0  0
    8.8000   -0.7917    0.0000 O   0  0  0  0  0  0  0  0  0  0  0  0
    2.5625   -4.3667    0.0000 O   0  0  0  0  0  0  0  0  0  0  0  0
    8.4667   -1.6667    0.0000 O   0  0  0  0  0  0  0  0  0  0  0  0
    6.8542   -1.0542    0.0000 C   0  0  0  0  0  0  0  0  0  0  0  0
    4.7042   -1.4542    0.0000 O   0  0  0  0  0  0  0  0  0  0  0  0
    4.7125   -2.2917    0.0000 C   0  0  0  0  0  0  0  0  0  0  0  0
    4.4667    0.7208    0.0000 Na  0  0  0  0  0 15  0  0  0  0  0  0
    7.6167    1.1875    0.0000 Na  0  0  0  0  0 15  0  0  0  0  0  0
  2  6  1  0
  3  1  1  0
  4  5  1  0
  5  1  1  0
  6 10  1  0
  7  2  1  0
  8 20  1  0
  9  1  1  0
 10  9  1  0
 11  2  1  0
  3 12  1  0
 13  7  2  0
 14  3  1  0
 15  5  1  0
 16  4  1  0
 17 11  2  0
 18 17  1  0
 19 12  1  0
 20 19  1  0
 21  8  1  0
 22  8  1  0
 23 16  1  0
 24  8  2  0
 25 12  2  0
 26 18  2  0
  3 27  1  6
  1 28  1  1
 10 29  1  1
  2 30  1  1
 14 15  1  0
  6  4  1  0
 23  7  1  0
 18 13  1  0
M  CHG  4  21  -1  22  -1  31   1  32   1
M  END
>  <ID>  (954) 


>  <MOLENAME>  (954) 
PREDNISOLONE SODIUM PHOSPHATE

>  <therap>  (954) 
antiinflammatory, glucocorticoid

>  <ref>  (954) 
Ther Drug Monit 2:169 (1980); Anal Profiles Drug Subs Excip 21:415 (1992)

>  <cas#>  (954) 
125-02-0

>  <source>  (954) 
semisynthetic

>  <status>  (954) 
USP, JAN

>  <tradename>  (954) 
HYDELTRASOLE

>  <SMILES>  (954) 
C[C@]12C[C@H](O)C3C(CCC4=CC(=O)C=C[C@@]43C)C1CC[C@]2(O)C(=O)COP(=O)(O)O

>  <standardized_failed>  (954) 
False

$$$$

     RDKit          2D

 30 33  0  0  0  0  0  0  0  0999 V2000
    6.9042   -1.8667    0.0000 C   0  0  0  0  0  0  0  0  0  0  0  0
    4.7625   -3.1042    0.0000 C   0  0  0  0  0  0  0  0  0  0  0  0
    4.7625   -3.9292    0.0000 C   0  0  0  0  0  0  0  0  0  0  0  0
    6.9042   -2.6917    0.0000 C   0  0  0  0  0  0  0  0  0  0  0  0
    5.4750   -2.6917    0.0000 C   0  0  0  0  0  0  0  0  0  0  0  0
    6.1917   -3.1042    0.0000 C   0  0  0  0  0  0  0  0  0  0  0  0
    7.6917   -1.6167    0.0000 C   0  0  0  0  0  0  0  0  0  0  0  0
    5.4750   -4.3417    0.0000 C   0  0  0  0  0  0  0  0  0  0  0  0
    6.1875   -1.4542    0.0000 C   0  0  0  0  0  0  0  0  0  0  0  0
    6.1917   -3.9292    0.0000 C   0  0  0  0  0  0  0  0  0  0  0  0
    5.4750   -1.8667    0.0000 C   0  0  0  0  0  0  0  0  0  0  0  0
    7.6917   -2.9542    0.0000 C   0  0  0  0  0  0  0  0  0  0  0  0
    4.0500   -2.6917    0.0000 C   0  0  0  0  0  0  0  0  0  0  0  0
    8.1750   -2.2792    0.0000 C   0  0  0  0  0  0  0  0  0  0  0  0
    1.9000   -3.9417    0.0000 C   0  0  0  0  0  0  0  0  0  0  0  0
    7.9417   -0.8292    0.0000 C   0  0  0  0  0  0  0  0  0  0  0  0
    4.0500   -4.3417    0.0000 C   0  0  0  0  0  0  0  0  0  0  0  0
   -0.2375   -4.3542    0.0000 C   0  0  0  0  0  0  0  0  0  0  0  0
    2.6125   -4.3542    0.0000 O   0  0  0  0  0  0  0  0  0  0  0  0
    3.3292   -3.9292    0.0000 C   0  0  0  0  0  0  0  0  0  0  0  0
    1.9000   -3.1167    0.0000 O   0  0  0  0  0  0  0  0  0  0  0  0
   -0.2375   -5.1792    0.0000 O   0  0  0  0  0  0  0  0  0  0  0  0
    8.7500   -0.6542    0.0000 O   0  0  0  0  0  0  0  0  0  0  0  0
    3.3292   -3.1042    0.0000 C   0  0  0  0  0  0  0  0  0  0  0  0
    1.1875   -4.3542    0.0000 C   0  0  0  0  0  0  0  0  0  0  0  0
    0.4750   -3.9417    0.0000 C   0  0  0  0  0  0  0  0  0  0  0  0
    6.8625   -1.0167    0.0000 C   0  0  0  0  0  0  0  0  0  0  0  0
    4.7625   -2.2792    0.0000 C   0  0  0  0  0  0  0  0  0  0  0  0
   -0.9500   -3.9417    0.0000 O   0  0  0  0  0  0  0  0  0  0  0  0
    7.3917   -0.2167    0.0000 C   0  0  0  0  0  0  0  0  0  0  0  0
  2  5  1  0
  3  2  1  0
  4  1  1  0
  5 11  1  0
  6  4  1  0
  7  1  1  0
  8 10  1  0
  9  1  1  0
 10  6  1  0
 11  9  1  0
 12  4  1  0
 13  2  1  0
 14  7  1  0
 15 19  1  0
  7 16  1  1
 17  3  1  0
 18 26  1  0
 20 19  1  1
 20 24  1  0
 21 15  2  0
 22 18  2  0
 23 16  2  0
 24 13  1  0
 25 15  1  0
 26 25  1  0
  1 27  1  1
  2 28  1  1
 29 18  1  0
 30 16  1  0
 14 12  1  0
  5  6  1  0
  8  3  2  0
 20 17  1  0
M  END
>  <ID>  (955) 


>  <MOLENAME>  (955) 
PREGNENOLONE SUCCINATE

>  <therap>  (955) 
glucocortcoid, antiinflammatory

>  <ref>  (955) 
J Steroid Biochem Mol Biol 75:1 (2000); African J Pharmacy Pharmacol 3:234 (2009)

>  <cas#>  (955) 
4598-67-8

>  <source>  (955) 
semisynthetic

>  <status>  (955) 
USAN, INN, BAN

>  <tradename>  (955) 
FORMULA-405

>  <SMILES>  (955) 
CC(=O)[C@H]1CCC2C3CC=C4C[C@@H](OC(=O)CCC(=O)O)CC[C@]4(C)C3CC[C@@]21C

>  <standardized_failed>  (955) 
False

$$$$

     RDKit          2D

 20 20  0  0  0  0  0  0  0  0999 V2000
    7.4542   -5.6542    0.0000 C   0  0  0  0  0  0  0  0  0  0  0  0
    7.0792   -5.0042    0.0000 N   0  0  0  0  0  0  0  0  0  0  0  0
    7.5792   -4.4417    0.0000 C   0  0  0  0  0  0  0  0  0  0  0  0
    8.1917   -5.4917    0.0000 C   0  0  0  0  0  0  0  0  0  0  0  0
    7.0792   -6.3042    0.0000 C   0  0  0  0  0  0  0  0  0  0  0  0
    7.4292   -3.7042    0.0000 C   0  0  0  0  0  0  0  0  0  0  0  0
    8.2667   -4.7417    0.0000 C   0  0  0  0  0  0  0  0  0  0  0  0
    6.7167   -3.4542    0.0000 C   0  0  0  0  0  0  0  0  0  0  0  0
    6.3167   -6.3042    0.0000 C   0  0  0  0  0  0  0  0  0  0  0  0
    7.4542   -6.9417    0.0000 O   0  0  0  0  0  0  0  0  0  0  0  0
    6.1542   -3.9542    0.0000 O   0  0  0  0  0  0  0  0  0  0  0  0
    6.5667   -2.7167    0.0000 O   0  0  0  0  0  0  0  0  0  0  0  0
    5.9542   -5.6542    0.0000 C   0  0  0  0  0  0  0  0  0  0  0  0
    5.9542   -6.9542    0.0000 C   0  0  0  0  0  0  0  0  0  0  0  0
    6.3167   -4.9292    0.0000 C   0  0  0  0  0  0  0  0  0  0  0  0
    5.2042   -6.9542    0.0000 C   0  0  0  0  0  0  0  0  0  0  0  0
    5.2042   -5.6542    0.0000 C   0  0  0  0  0  0  0  0  0  0  0  0
    4.8292   -6.3042    0.0000 C   0  0  0  0  0  0  0  0  0  0  0  0
    4.4542   -3.9042    0.0000 Na  0  0  0  0  0 15  0  0  0  0  0  0
    4.0792   -6.3042    0.0000 C   0  0  0  0  0  0  0  0  0  0  0  0
  2  1  1  0
  3  2  1  0
  4  1  2  0
  5  1  1  0
  6  3  1  0
  7  4  1  0
  8  6  1  0
  9  5  1  0
 10  5  2  0
 11  8  1  0
 12  8  2  0
 13  9  2  0
 14  9  1  0
 15  2  1  0
 16 14  2  0
 17 13  1  0
 18 16  1  0
 20 18  1  0
  3  7  2  0
 17 18  2  0
M  CHG  2  11  -1  19   1
M  END
>  <ID>  (956) 


>  <MOLENAME>  (956) 
TOLMETIN SODIUM

>  <therap>  (956) 
antiinflammatory

>  <ref>  (956) 
Drugs 15:429 (1978)

>  <cas#>  (956) 
64490-92-2, 26171-23-3 [tolmetin]

>  <source>  (956) 
synthetic; McN-2559

>  <status>  (956) 
USP, JAN

>  <tradename>  (956) 
TOLECTIN

>  <SMILES>  (956) 
Cc1ccc(C(=O)c2ccc(CC(=O)O)n2C)cc1

>  <standardized_failed>  (956) 
False

$$$$

     RDKit          2D

 27 30  0  0  0  0  0  0  0  0999 V2000
    1.1500    0.2083    0.0000 C   0  0  0  0  0  0  0  0  0  0  0  0
   -0.2875   -0.6042    0.0000 C   0  0  0  0  0  0  0  0  0  0  0  0
   -1.0000   -1.0167    0.0000 C   0  0  0  0  0  0  0  0  0  0  0  0
    1.1417   -0.6167    0.0000 C   0  0  0  0  0  0  0  0  0  0  0  0
    0.4167   -1.0250    0.0000 C   0  0  0  0  0  0  0  0  0  0  0  0
   -1.0083   -1.8417    0.0000 C   0  0  0  0  0  0  0  0  0  0  0  0
   -0.2833    0.2208    0.0000 C   0  0  0  0  0  0  0  0  0  0  0  0
    1.9292    0.4500    0.0000 C   0  0  0  0  0  0  0  0  0  0  0  0
    0.4417    0.6250    0.0000 C   0  0  0  0  0  0  0  0  0  0  0  0
   -1.7125   -0.6000    0.0000 C   0  0  0  0  0  0  0  0  0  0  0  0
    1.9167   -0.8792    0.0000 C   0  0  0  0  0  0  0  0  0  0  0  0
    2.4042   -0.2167    0.0000 C   0  0  0  0  0  0  0  0  0  0  0  0
   -1.7125   -2.2500    0.0000 C   0  0  0  0  0  0  0  0  0  0  0  0
    0.4250   -1.8417    0.0000 C   0  0  0  0  0  0  0  0  0  0  0  0
   -2.4208   -1.0167    0.0000 C   0  0  0  0  0  0  0  0  0  0  0  0
   -2.4208   -1.8417    0.0000 C   0  0  0  0  0  0  0  0  0  0  0  0
    1.9292    1.2750    0.0000 C   0  0  0  0  0  0  0  0  0  0  0  0
   -0.2958   -2.2542    0.0000 C   0  0  0  0  0  0  0  0  0  0  0  0
   -0.2958   -1.4292    0.0000 F   0  0  0  0  0  0  0  0  0  0  0  0
    1.2042    1.6833    0.0000 O   0  0  0  0  0  0  0  0  0  0  0  0
   -3.1375   -2.2542    0.0000 O   0  0  0  0  0  0  0  0  0  0  0  0
    1.1417    1.0333    0.0000 C   0  0  0  0  0  0  0  0  0  0  0  0
   -1.0000    0.6333    0.0000 O   0  0  0  0  0  0  0  0  0  0  0  0
   -1.0083   -0.1917    0.0000 C   0  0  0  0  0  0  0  0  0  0  0  0
    3.2292   -0.2167    0.0000 C   0  0  0  0  0  0  0  0  0  0  0  0
    3.3542    1.2875    0.0000 O   0  0  0  0  0  0  0  0  0  0  0  0
    2.6375    1.6958    0.0000 C   0  0  0  0  0  0  0  0  0  0  0  0
  2  7  1  0
  3  2  1  0
  4  1  1  0
  5  4  1  0
  6  3  1  0
  7  9  1  0
  8  1  1  0
  9  1  1  0
 10  3  1  0
 11  4  1  0
 12  8  1  0
 13  6  2  0
 14  5  1  0
 15 10  2  0
 16 15  1  0
  8 17  1  1
 18 14  1  0
  2 19  1  6
 20 17  2  0
 21 16  2  0
  1 22  1  1
  7 23  1  1
  3 24  1  1
 12 25  1  6
 26 27  1  0
 27 17  1  0
 12 11  1  0
  5  2  1  0
 18  6  1  0
 16 13  1  0
M  END
>  <ID>  (957) 


>  <MOLENAME>  (957) 
DESOXYMETASONE

>  <therap>  (957) 
antiinflammatory

>  <ref>  (957) 
Arzneim Forsch 24:1, 3 (1974); Drugs 16:302 (1978)

>  <cas#>  (957) 
382-67-2

>  <source>  (957) 
semisynthetic; HOE-304, R-2113, A-41-304

>  <status>  (957) 
USAN, INN, BAN

>  <tradename>  (957) 
TOPICORT

>  <SMILES>  (957) 
C[C@@H]1CC2C3CCC4=CC(=O)C=C[C@]4(C)[C@@]3(F)[C@@H](O)C[C@]2(C)[C@H]1C(=O)CO

>  <standardized_failed>  (957) 
False

$$$$

     RDKit          2D

 22 22  0  0  0  0  0  0  0  0999 V2000
    2.3792   -2.4000    0.0000 C   0  0  0  0  0  0  0  0  0  0  0  0
    2.7917   -1.6917    0.0000 C   0  0  0  0  0  0  0  0  0  0  0  0
    1.5542   -2.4042    0.0000 C   0  0  0  0  0  0  0  0  0  0  0  0
    3.6042   -1.6917    0.0000 C   0  0  0  0  0  0  0  0  0  0  0  0
    4.0125   -0.9792    0.0000 O   0  0  0  0  0  0  0  0  0  0  0  0
    6.4750   -0.9792    0.0000 N   0  0  0  0  0  0  0  0  0  0  0  0
    1.1417   -3.1167    0.0000 O   0  0  0  0  0  0  0  0  0  0  0  0
    7.2917   -0.9792    0.0000 C   0  0  0  0  0  0  0  0  0  0  0  0
    5.2417   -0.2667    0.0000 C   0  0  0  0  0  0  0  0  0  0  0  0
    4.8292   -0.9792    0.0000 C   0  0  0  0  0  0  0  0  0  0  0  0
    6.0625   -0.2667    0.0000 C   0  0  0  0  0  0  0  0  0  0  0  0
    5.9917   -2.7417    0.0000 Cl  0  0  0  0  0  0  0  0  0  0  0  0
    2.7875   -3.1042    0.0000 C   0  0  0  0  0  0  0  0  0  0  0  0
    2.3792   -0.9750    0.0000 C   0  0  0  0  0  0  0  0  0  0  0  0
    4.8250    0.4500    0.0000 O   0  0  0  0  0  0  0  0  0  0  0  0
    1.1417   -1.6917    0.0000 C   0  0  0  0  0  0  0  0  0  0  0  0
    1.5542   -0.9750    0.0000 C   0  0  0  0  0  0  0  0  0  0  0  0
    3.6042   -3.1042    0.0000 C   0  0  0  0  0  0  0  0  0  0  0  0
    4.0167   -2.3917    0.0000 C   0  0  0  0  0  0  0  0  0  0  0  0
    8.1167   -0.9792    0.0000 C   0  0  0  0  0  0  0  0  0  0  0  0
    7.7042   -1.6917    0.0000 C   0  0  0  0  0  0  0  0  0  0  0  0
    7.7042   -0.2625    0.0000 C   0  0  0  0  0  0  0  0  0  0  0  0
  2  1  2  0
  3  1  1  0
  4  2  1  0
  5  4  1  0
  6 11  1  0
  7  3  2  0
  8  6  1  0
  9 10  1  0
 10  5  1  0
 11  9  1  0
 13  1  1  0
 14  2  1  0
 15  9  1  0
 16  3  1  0
 17 16  1  0
 18 13  2  0
 19 18  1  0
 20  8  1  0
 21  8  1  0
 22  8  1  0
  4 19  2  0
 17 14  1  0
M  END
>  <ID>  (958) 


>  <MOLENAME>  (958) 
LEVOBUNOLOL HYDROCHLORIDE

>  <therap>  (958) 
beta-adrenergic blocker

>  <ref>  (958) 
Drugs (1987), 34(6), 648-61; J. Med. Chem. (1970), 13(4), 684-8; J. Med. Chem. (1973), 16(5), 585-8

>  <cas#>  (958) 
17912-14-7

>  <source>  (958) 
synthetic; W-7000A

>  <status>  (958) 
USP, INN, BAN

>  <tradename>  (958) 
BETAGAN

>  <SMILES>  (958) 
CC(C)(C)NCC(O)COc1cccc2c1CCCC2=O

>  <standardized_failed>  (958) 
False

$$$$

     RDKit          2D

 13 12  0  0  0  0  0  0  0  0999 V2000
    3.6917   -3.9625    0.0000 C   0  0  0  0  0  0  0  0  0  0  0  0
    4.4042   -3.5500    0.0000 C   0  0  0  0  0  0  0  0  0  0  0  0
    2.9792   -3.5500    0.0000 C   0  0  0  0  0  0  0  0  0  0  0  0
    5.1167   -3.9625    0.0000 C   0  0  0  0  0  0  0  0  0  0  0  0
    3.6917   -4.7875    0.0000 O   0  0  0  0  0  0  0  0  0  0  0  0
    4.4042   -2.7250    0.0000 O   0  0  0  0  0  0  0  0  0  0  0  0
    1.5542   -3.5500    0.0000 N   0  0  0  0  0  0  0  0  0  0  0  0
    2.9792   -2.7250    0.0000 O   0  0  0  0  0  0  0  0  0  0  0  0
    5.1167   -4.7875    0.0000 O   0  0  0  0  0  0  0  0  0  0  0  0
    2.2667   -3.9625    0.0000 C   0  0  0  0  0  0  0  0  0  0  0  0
    6.5417   -3.9625    0.0000 O   0  0  0  0  0  0  0  0  0  0  0  0
    5.8292   -3.5500    0.0000 C   0  0  0  0  0  0  0  0  0  0  0  0
    0.8417   -3.9625    0.0000 C   0  0  0  0  0  0  0  0  0  0  0  0
  2  1  1  0
  3  1  1  0
  4  2  1  0
  1  5  1  6
  2  6  1  6
  7 10  1  0
  3  8  1  6
  4  9  1  1
 10  3  1  0
 11 12  1  0
 12  4  1  0
 13  7  1  0
M  END
>  <ID>  (959) 


>  <MOLENAME>  (959) 
MEGLUMINE

>  <therap>  (959) 
diagnostic aid

>  <ref>  (959) 
Radiology (1992), 183(1), 227-38; AJR, Am. J. Roentgenol. (1991), 156(3), 457-66; J. Protozool. (1981), 28(1), 27-30

>  <cas#>  (959) 
6284-40-8

>  <source>  (959) 
semisynthetic

>  <status>  (959) 
USP, INN, BAN, JAN

>  <tradename>  (959) 
nan

>  <SMILES>  (959) 
CNC[C@H](O)[C@@H](O)[C@H](O)[C@H](O)CO

>  <standardized_failed>  (959) 
False

$$$$

     RDKit          2D

 25 26  0  0  0  0  0  0  0  0999 V2000
    3.6750   -1.5917    0.0000 N   0  0  0  0  0  0  0  0  0  0  0  0
    3.5500   -2.6542    0.0000 C   0  0  0  0  0  0  0  0  0  0  0  0
    3.9750   -0.8292    0.0000 C   0  0  0  0  0  0  0  0  0  0  0  0
    7.1417   -1.6875    0.0000 C   0  0  0  0  0  0  0  0  0  0  0  0
    7.9167   -2.0292    0.0000 C   0  0  0  0  0  0  0  0  0  0  0  0
    5.5917   -1.3667    0.0000 C   0  0  0  0  0  0  0  0  0  0  0  0
    4.8917   -2.6167    0.0000 C   0  0  0  0  0  0  0  0  0  0  0  0
    4.6542   -1.2042    0.0000 C   0  0  0  0  0  0  0  0  0  0  0  0
    6.3917   -2.0250    0.0000 O   0  0  0  0  0  0  0  0  0  0  0  0
    7.1417   -0.9042    0.0000 O   0  0  0  0  0  0  0  0  0  0  0  0
    1.7875   -1.8292    0.0000 C   0  0  0  0  0  0  0  0  0  0  0  0
    2.2500   -1.1042    0.0000 C   0  0  0  0  0  0  0  0  0  0  0  0
    4.4250   -1.7500    0.0000 C   0  0  0  0  0  0  0  0  0  0  0  0
    8.5292   -1.5792    0.0000 C   0  0  0  0  0  0  0  0  0  0  0  0
    5.3417   -0.2417    0.0000 Br  0  0  0  0  0  0  0  0  0  0  0  0
    2.5542   -1.6250    0.0000 C   0  0  0  0  0  0  0  0  0  0  0  0
    7.9042   -2.8000    0.0000 C   0  0  0  0  0  0  0  0  0  0  0  0
    7.1167   -3.1500    0.0000 O   0  0  0  0  0  0  0  0  0  0  0  0
    8.4417   -0.8375    0.0000 C   0  0  0  0  0  0  0  0  0  0  0  0
    9.2042   -1.8792    0.0000 C   0  0  0  0  0  0  0  0  0  0  0  0
    4.4250   -2.2792    0.0000 C   0  0  0  0  0  0  0  0  0  0  0  0
    5.0792   -1.5625    0.0000 C   0  0  0  0  0  0  0  0  0  0  0  0
    9.8167   -1.4417    0.0000 C   0  0  0  0  0  0  0  0  0  0  0  0
    9.0417   -0.3917    0.0000 C   0  0  0  0  0  0  0  0  0  0  0  0
    9.7292   -0.6917    0.0000 C   0  0  0  0  0  0  0  0  0  0  0  0
  2  1  1  0
  3  1  1  0
  4  9  1  0
  5  4  1  0
  6  8  1  0
  2  7  1  6
  8  3  1  0
  6  9  1  6
 10  4  2  0
 11  2  1  0
 12  3  1  0
 13  1  1  0
 14  5  1  0
 16  1  1  0
 17  5  1  0
 18 17  1  0
 19 14  2  0
 20 14  1  0
 21 13  1  0
 22 13  1  0
 23 20  2  0
 24 19  1  0
 25 24  2  0
 12 11  1  0
  7  6  1  0
 23 25  1  0
M  CHG  2   1   1  15  -1
M  END
>  <ID>  (960) 


>  <MOLENAME>  (960) 
IPRATROPIUM BROMIDE

>  <therap>  (960) 
bronchodilator, antiarrhythmic

>  <ref>  (960) 
Drug Intell. Clin. Pharm. (1985), 19(1), 5-12; Arzneim. Forsch. (1976), 26(5A), 981-5; Arzneim. Forsch. (1974), 24(4), 573-6

>  <cas#>  (960) 
66985-17-9, 22254-24-6 [anhydrous]

>  <source>  (960) 
synthetic; Sch-1000

>  <status>  (960) 
USAN, INN, BAN, JAN

>  <tradename>  (960) 
ATROVENT

>  <SMILES>  (960) 
CC(C)[N+]1(C)C2CC[C@H]1C[C@@H](OC(=O)C(CO)c1ccccc1)C2

>  <standardized_failed>  (960) 
False

$$$$

     RDKit          2D

 30 33  0  0  0  0  0  0  0  0999 V2000
    7.1667   -5.9167    0.0000 C   0  0  0  0  0  0  0  0  0  0  0  0
    5.7292   -6.7250    0.0000 C   0  0  0  0  0  0  0  0  0  0  0  0
    5.0167   -7.1375    0.0000 C   0  0  0  0  0  0  0  0  0  0  0  0
    6.4375   -7.1417    0.0000 C   0  0  0  0  0  0  0  0  0  0  0  0
    7.9500   -5.6667    0.0000 C   0  0  0  0  0  0  0  0  0  0  0  0
    7.1542   -6.7417    0.0000 C   0  0  0  0  0  0  0  0  0  0  0  0
    5.0125   -7.9625    0.0000 C   0  0  0  0  0  0  0  0  0  0  0  0
    5.7375   -5.9000    0.0000 C   0  0  0  0  0  0  0  0  0  0  0  0
    6.4542   -5.4917    0.0000 C   0  0  0  0  0  0  0  0  0  0  0  0
    4.3042   -6.7167    0.0000 C   0  0  0  0  0  0  0  0  0  0  0  0
    7.9417   -4.8417    0.0000 C   0  0  0  0  0  0  0  0  0  0  0  0
    4.3042   -8.3667    0.0000 C   0  0  0  0  0  0  0  0  0  0  0  0
    8.4250   -6.3417    0.0000 C   0  0  0  0  0  0  0  0  0  0  0  0
    7.9375   -7.0000    0.0000 C   0  0  0  0  0  0  0  0  0  0  0  0
    6.4417   -7.9667    0.0000 C   0  0  0  0  0  0  0  0  0  0  0  0
    3.5917   -7.1375    0.0000 C   0  0  0  0  0  0  0  0  0  0  0  0
    3.5917   -7.9625    0.0000 C   0  0  0  0  0  0  0  0  0  0  0  0
    5.7250   -8.3750    0.0000 C   0  0  0  0  0  0  0  0  0  0  0  0
   10.0792   -4.4167    0.0000 C   0  0  0  0  0  0  0  0  0  0  0  0
    5.7250   -7.5500    0.0000 F   0  0  0  0  0  0  0  0  0  0  0  0
    8.6542   -4.4250    0.0000 C   0  0  0  0  0  0  0  0  0  0  0  0
    7.2250   -4.4375    0.0000 O   0  0  0  0  0  0  0  0  0  0  0  0
    9.3667   -4.8292    0.0000 O   0  0  0  0  0  0  0  0  0  0  0  0
   10.0792   -3.5917    0.0000 O   0  0  0  0  0  0  0  0  0  0  0  0
    2.8792   -8.3750    0.0000 O   0  0  0  0  0  0  0  0  0  0  0  0
    8.7750   -5.6667    0.0000 O   0  0  0  0  0  0  0  0  0  0  0  0
    7.1625   -5.0917    0.0000 C   0  0  0  0  0  0  0  0  0  0  0  0
    5.0167   -5.4875    0.0000 O   0  0  0  0  0  0  0  0  0  0  0  0
    5.0125   -6.3125    0.0000 C   0  0  0  0  0  0  0  0  0  0  0  0
   10.8000   -4.8167    0.0000 C   0  0  0  0  0  0  0  0  0  0  0  0
  2  8  1  0
  3  2  1  0
  4  6  1  0
  5  1  1  0
  6  1  1  0
  7  3  1  0
  8  9  1  0
  9  1  1  0
 10  3  1  0
  5 11  1  0
 12  7  2  0
 13  5  1  0
 14  6  1  0
 15  4  1  0
 16 10  2  0
 17 16  1  0
 18 15  1  0
 19 23  1  0
  2 20  1  6
 21 11  1  0
 22 11  2  0
 23 21  1  0
 24 19  2  0
 25 17  2  0
  5 26  1  6
  1 27  1  1
  8 28  1  1
  3 29  1  1
 30 19  1  0
 13 14  1  0
  2  4  1  0
 18  7  1  0
 17 12  1  0
M  END
>  <ID>  (961) 


>  <MOLENAME>  (961) 
ISOFLUPREDONE ACETATE

>  <therap>  (961) 
antiinflammatory

>  <ref>  (961) 
Am J Vet Res 67:1244 (2006); J Dairy Sci 90:4181 (2007)

>  <cas#>  (961) 
338-98-7

>  <source>  (961) 
semisynthetic; U-6013

>  <status>  (961) 
USP

>  <tradename>  (961) 
PREDEF

>  <SMILES>  (961) 
CC(=O)OCC(=O)[C@@]1(O)CCC2C3CCC4=CC(=O)C=C[C@]4(C)[C@@]3(F)[C@@H](O)C[C@@]21C

>  <standardized_failed>  (961) 
False

$$$$

     RDKit          2D

 27 26  0  0  0  0  0  0  0  0999 V2000
    8.6750   -6.0042    0.0000 N   0  0  0  0  0  0  0  0  0  0  0  0
    7.9625   -6.4167    0.0000 C   0  0  0  0  0  0  0  0  0  0  0  0
    8.7625   -5.1792    0.0000 C   0  0  0  0  0  0  0  0  0  0  0  0
    6.5375   -6.4167    0.0000 N   0  0  0  0  0  0  0  0  0  0  0  0
    7.2500   -6.0042    0.0000 C   0  0  0  0  0  0  0  0  0  0  0  0
    8.1500   -4.6292    0.0000 C   0  0  0  0  0  0  0  0  0  0  0  0
    5.8250   -5.1792    0.0000 C   0  0  0  0  0  0  0  0  0  0  0  0
    5.8250   -6.0042    0.0000 C   0  0  0  0  0  0  0  0  0  0  0  0
    7.9625   -7.2417    0.0000 O   0  0  0  0  0  0  0  0  0  0  0  0
    7.3625   -4.8792    0.0000 O   0  0  0  0  0  0  0  0  0  0  0  0
    5.1042   -4.7667    0.0000 O   0  0  0  0  0  0  0  0  0  0  0  0
    5.1125   -6.4167    0.0000 C   0  0  0  0  0  0  0  0  0  0  0  0
    9.4292   -6.3292    0.0000 C   0  0  0  0  0  0  0  0  0  0  0  0
    8.3167   -3.8167    0.0000 O   0  0  0  0  0  0  0  0  0  0  0  0
    6.5375   -4.7667    0.0000 O   0  0  0  0  0  0  0  0  0  0  0  0
    4.4000   -6.0167    0.0000 C   0  0  0  0  0  0  0  0  0  0  0  0
    9.5667   -5.0042    0.0000 C   0  0  0  0  0  0  0  0  0  0  0  0
    3.6875   -6.4292    0.0000 C   0  0  0  0  0  0  0  0  0  0  0  0
    9.9792   -5.7167    0.0000 C   0  0  0  0  0  0  0  0  0  0  0  0
    6.9500   -5.3042    0.0000 C   0  0  0  0  0  0  0  0  0  0  0  0
    5.0917   -3.6167    0.0000 O   0  0  0  0  0  0  0  0  0  0  0  0
    6.7417   -3.6167    0.0000 O   0  0  0  0  0  0  0  0  0  0  0  0
    3.6875   -7.2667    0.0000 C   0  0  0  0  0  0  0  0  0  0  0  0
    2.9750   -6.0292    0.0000 C   0  0  0  0  0  0  0  0  0  0  0  0
    2.2583   -6.4292    0.0000 C   0  0  0  0  0  0  0  0  0  0  0  0
    2.9667   -7.6667    0.0000 C   0  0  0  0  0  0  0  0  0  0  0  0
    2.2583   -7.2542    0.0000 C   0  0  0  0  0  0  0  0  0  0  0  0
  2  1  1  0
  3  1  1  0
  4  5  1  0
  5  2  1  0
  3  6  1  6
  8  7  1  0
  8  4  1  0
  9  2  2  0
 10  6  2  0
 11  7  2  0
  8 12  1  1
 13  1  1  0
 14  6  1  0
 15  7  1  0
 16 12  1  0
 17  3  1  0
 18 16  1  0
 19 13  1  0
  5 20  1  1
 23 18  2  0
 24 18  1  0
 25 24  2  0
 26 23  1  0
 27 25  1  0
 19 17  1  0
 27 26  2  0
M  END
>  <ID>  (962) 


>  <MOLENAME>  (962) 
ENALAPRILAT

>  <therap>  (962) 
antihypertensive

>  <ref>  (962) 
Drugs (1990), 39 Suppl 429-40; J. Pharmacol. Exp. Ther. (1981), 216(3), 552-7; Nature (1980), 288(5788), 280-3

>  <cas#>  (962) 
84680-54-6

>  <source>  (962) 
synthetic; MK-422

>  <status>  (962) 
USP, INN, BAN

>  <tradename>  (962) 
VASOTEC

>  <SMILES>  (962) 
C[C@H](N[C@@H](CCc1ccccc1)C(=O)O)C(=O)N1CCC[C@H]1C(=O)O

>  <standardized_failed>  (962) 
False

$$$$

     RDKit          2D

 37 39  0  0  0  0  0  0  0  0999 V2000
    2.6667   -1.8000    0.0000 N   0  0  0  0  0  0  0  0  0  0  0  0
    3.3875   -3.0375    0.0000 C   0  0  0  0  0  0  0  0  0  0  0  0
    2.6750   -3.4542    0.0000 S   0  0  0  0  0  0  0  0  0  0  0  0
    3.3833   -2.2083    0.0000 C   0  0  0  0  0  0  0  0  0  0  0  0
    1.9583   -2.2167    0.0000 C   0  0  0  0  0  0  0  0  0  0  0  0
    1.9583   -3.0417    0.0000 C   0  0  0  0  0  0  0  0  0  0  0  0
    4.1042   -3.4458    0.0000 C   0  0  0  0  0  0  0  0  0  0  0  0
    4.8208   -3.0292    0.0000 C   0  0  0  0  0  0  0  0  0  0  0  0
    4.0917   -1.7875    0.0000 C   0  0  0  0  0  0  0  0  0  0  0  0
    4.8000   -0.5542    0.0000 N   0  0  0  0  0  0  0  0  0  0  0  0
    6.2167    0.2667    0.0000 N   0  0  0  0  0  0  0  0  0  0  0  0
    8.0750   -1.8167    0.0000 C   0  0  0  0  0  0  0  0  0  0  0  0
    9.2500   -1.1417    0.0000 C   0  0  0  0  0  0  0  0  0  0  0  0
    8.6625   -2.1542    0.0000 C   0  0  0  0  0  0  0  0  0  0  0  0
    9.2500   -1.8167    0.0000 C   0  0  0  0  0  0  0  0  0  0  0  0
    5.5417   -3.4333    0.0000 C   0  0  0  0  0  0  0  0  0  0  0  0
    4.8042   -2.1958    0.0000 C   0  0  0  0  0  0  0  0  0  0  0  0
    7.4917   -2.1542    0.0000 O   0  0  0  0  0  0  0  0  0  0  0  0
    8.6667   -0.8042    0.0000 O   0  0  0  0  0  0  0  0  0  0  0  0
    6.2500   -3.0083    0.0000 O   0  0  0  0  0  0  0  0  0  0  0  0
    2.6625   -0.9750    0.0000 C   0  0  0  0  0  0  0  0  0  0  0  0
    6.2167   -0.5542    0.0000 C   0  0  0  0  0  0  0  0  0  0  0  0
    5.5125   -0.9667    0.0000 C   0  0  0  0  0  0  0  0  0  0  0  0
    5.5042    0.6750    0.0000 C   0  0  0  0  0  0  0  0  0  0  0  0
    4.7917    0.2625    0.0000 C   0  0  0  0  0  0  0  0  0  0  0  0
    3.3750   -0.5625    0.0000 C   0  0  0  0  0  0  0  0  0  0  0  0
    9.8333   -0.8042    0.0000 O   0  0  0  0  0  0  0  0  0  0  0  0
    8.0750   -1.1417    0.0000 O   0  0  0  0  0  0  0  0  0  0  0  0
    4.0917   -0.9667    0.0000 C   0  0  0  0  0  0  0  0  0  0  0  0
    1.2417   -1.8042    0.0000 C   0  0  0  0  0  0  0  0  0  0  0  0
    6.9292    0.6833    0.0000 C   0  0  0  0  0  0  0  0  0  0  0  0
    1.2417   -3.4583    0.0000 C   0  0  0  0  0  0  0  0  0  0  0  0
    8.3542    0.6833    0.0000 O   0  0  0  0  0  0  0  0  0  0  0  0
    5.5542   -4.2583    0.0000 C   0  0  0  0  0  0  0  0  0  0  0  0
    7.6417    0.2708    0.0000 C   0  0  0  0  0  0  0  0  0  0  0  0
    0.5292   -2.2167    0.0000 C   0  0  0  0  0  0  0  0  0  0  0  0
    0.5292   -3.0458    0.0000 C   0  0  0  0  0  0  0  0  0  0  0  0
  2  4  2  0
  3  6  1  0
  4  1  1  0
  5  1  1  0
  6  5  2  0
  7  2  1  0
  8 17  1  0
  9  4  1  0
 10 29  1  0
 11 22  1  0
 13 15  1  0
 14 12  1  0
 15 14  2  0
 16  8  1  0
 17  9  2  0
 18 12  2  0
 19 13  2  0
 20 16  2  0
 21  1  1  0
 22 23  1  0
 23 10  1  0
 24 25  1  0
 25 10  1  0
 26 21  1  0
 27 13  1  0
 28 12  1  0
 29 26  1  0
 30  5  1  0
 31 11  1  0
 32  6  1  0
 33 35  1  0
 34 16  1  0
 35 31  1  0
 36 30  2  0
 37 32  2  0
  2  3  1  0
 37 36  1  0
  8  7  2  0
 24 11  1  0
M  END
>  <ID>  (963) 


>  <MOLENAME>  (963) 
ACETOPHENAZINE MALEATE

>  <therap>  (963) 
antipsychotic

>  <ref>  (963) 
Am J Psychiatry 118:358 (1961); Arch Gen Psychiatry 24:273 (1971)

>  <cas#>  (963) 
5714-00-1

>  <source>  (963) 
synthetic; SCH-6673

>  <status>  (963) 
USAN

>  <tradename>  (963) 
TINDAL

>  <SMILES>  (963) 
CC(=O)c1cc2c(cc1)N(CCCN1CCN(CCO)CC1)c1c(cccc1)S2

>  <standardized_failed>  (963) 
False

$$$$

     RDKit          2D

 33 35  0  0  0  0  0  0  0  0999 V2000
    6.6667   -1.8542    0.0000 C   0  0  0  0  0  0  0  0  0  0  0  0
    7.2542   -1.5125    0.0000 C   0  0  0  0  0  0  0  0  0  0  0  0
    6.0792   -1.5167    0.0000 C   0  0  0  0  0  0  0  0  0  0  0  0
    6.6667   -2.5375    0.0000 C   0  0  0  0  0  0  0  0  0  0  0  0
    6.0792   -2.8792    0.0000 C   0  0  0  0  0  0  0  0  0  0  0  0
    5.4917   -1.8542    0.0000 C   0  0  0  0  0  0  0  0  0  0  0  0
    7.4375    0.3583    0.0000 N   0  0  0  0  0  0  0  0  0  0  0  0
    5.4917   -2.5375    0.0000 C   0  0  0  0  0  0  0  0  0  0  0  0
    7.8500   -1.8500    0.0000 O   0  0  0  0  0  0  0  0  0  0  0  0
    7.2542   -0.8292    0.0000 O   0  0  0  0  0  0  0  0  0  0  0  0
    8.1500    0.7708    0.0000 C   0  0  0  0  0  0  0  0  0  0  0  0
    7.2625   -2.8792    0.0000 O   0  0  0  0  0  0  0  0  0  0  0  0
    8.8625    0.3625    0.0000 C   0  0  0  0  0  0  0  0  0  0  0  0
    5.3000    0.7583    0.0000 O   0  0  0  0  0  0  0  0  0  0  0  0
    4.5875    0.3458    0.0000 C   0  0  0  0  0  0  0  0  0  0  0  0
    6.7250    0.7625    0.0000 C   0  0  0  0  0  0  0  0  0  0  0  0
    6.0125    0.3500    0.0000 C   0  0  0  0  0  0  0  0  0  0  0  0
    6.8500   -0.2292    0.0000 C   0  0  0  0  0  0  0  0  0  0  0  0
    8.0167   -0.2292    0.0000 C   0  0  0  0  0  0  0  0  0  0  0  0
    4.9042   -1.5167    0.0000 C   0  0  0  0  0  0  0  0  0  0  0  0
    4.9042   -2.8750    0.0000 C   0  0  0  0  0  0  0  0  0  0  0  0
    9.5750    0.7708    0.0000 C   0  0  0  0  0  0  0  0  0  0  0  0
    8.8542   -0.4542    0.0000 C   0  0  0  0  0  0  0  0  0  0  0  0
    4.5875   -0.4792    0.0000 C   0  0  0  0  0  0  0  0  0  0  0  0
    3.8667    0.7583    0.0000 C   0  0  0  0  0  0  0  0  0  0  0  0
    4.3167   -1.8542    0.0000 C   0  0  0  0  0  0  0  0  0  0  0  0
    4.3167   -2.5375    0.0000 C   0  0  0  0  0  0  0  0  0  0  0  0
    9.5667   -0.8667    0.0000 C   0  0  0  0  0  0  0  0  0  0  0  0
   10.2792    0.3708    0.0000 C   0  0  0  0  0  0  0  0  0  0  0  0
    3.8667   -0.8917    0.0000 C   0  0  0  0  0  0  0  0  0  0  0  0
    3.1542    0.3458    0.0000 C   0  0  0  0  0  0  0  0  0  0  0  0
   10.2792   -0.4542    0.0000 C   0  0  0  0  0  0  0  0  0  0  0  0
    3.1542   -0.4792    0.0000 C   0  0  0  0  0  0  0  0  0  0  0  0
  2  1  1  0
  3  1  2  0
  4  1  1  0
  5  4  2  0
  6  3  1  0
  8  5  1  0
  9  2  1  0
 10  2  2  0
 11  7  1  0
 12  4  1  0
 13 11  1  0
 14 17  1  0
 15 14  1  0
 16  7  1  0
 17 16  1  0
 18  7  1  0
 19  7  1  0
 20  6  2  0
 21  8  2  0
 22 13  2  0
 23 13  1  0
 24 15  2  0
 25 15  1  0
 26 20  1  0
 27 21  1  0
 28 23  2  0
 29 22  1  0
 30 24  1  0
 31 25  2  0
 32 28  1  0
 33 31  1  0
  6  8  1  0
 26 27  2  0
 32 29  2  0
 33 30  2  0
M  CHG  2   7   1   9  -1
M  END
>  <ID>  (964) 


>  <MOLENAME>  (964) 
BEPHENIUM HYDROXYNAPTHOATE

>  <therap>  (964) 
anthelmintic

>  <ref>  (964) 
Experientia 30:1265 (1974)

>  <cas#>  (964) 
3818-50-6

>  <source>  (964) 
synthetic

>  <status>  (964) 
USP-XXI, INN, BAN

>  <tradename>  (964) 
nan

>  <SMILES>  (964) 
C[N+](C)(CCOc1ccccc1)Cc1ccccc1.O=C([O-])c1cc2ccccc2cc1O

>  <standardized_failed>  (964) 
False

$$$$

     RDKit          2D

 30 31  0  0  0  0  0  0  0  0999 V2000
    3.7042   -1.5792    0.0000 C   0  0  0  0  0  0  0  0  0  0  0  0
    5.7625   -0.8667    0.0000 C   0  0  0  0  0  0  0  0  0  0  0  0
    2.4750    0.5583    0.0000 N   0  0  0  0  0  0  0  0  0  0  0  0
    3.2917   -2.2917    0.0000 N   0  0  0  0  0  0  0  0  0  0  0  0
    6.1750   -1.5792    0.0000 N   0  0  0  0  0  0  0  0  0  0  0  0
    3.2917   -0.8667    0.0000 O   0  0  0  0  0  0  0  0  0  0  0  0
    4.5292   -1.5792    0.0000 O   0  0  0  0  0  0  0  0  0  0  0  0
    3.7042   -0.1542    0.0000 C   0  0  0  0  0  0  0  0  0  0  0  0
    6.1667   -0.1500    0.0000 O   0  0  0  0  0  0  0  0  0  0  0  0
    4.9417   -0.8667    0.0000 O   0  0  0  0  0  0  0  0  0  0  0  0
    3.2917    0.5583    0.0000 C   0  0  0  0  0  0  0  0  0  0  0  0
    4.5292   -0.1542    0.0000 C   0  0  0  0  0  0  0  0  0  0  0  0
    3.7042   -3.0042    0.0000 C   0  0  0  0  0  0  0  0  0  0  0  0
    6.9917   -1.5792    0.0000 C   0  0  0  0  0  0  0  0  0  0  0  0
    4.7667    1.0625    0.0000 Cl  0  0  0  0  0  0  0  0  0  0  0  0
    2.0667    1.2750    0.0000 C   0  0  0  0  0  0  0  0  0  0  0  0
    2.0667   -0.1542    0.0000 C   0  0  0  0  0  0  0  0  0  0  0  0
    4.5292   -3.0042    0.0000 C   0  0  0  0  0  0  0  0  0  0  0  0
    3.2917   -3.7167    0.0000 C   0  0  0  0  0  0  0  0  0  0  0  0
    7.4042   -2.2917    0.0000 C   0  0  0  0  0  0  0  0  0  0  0  0
    7.4000   -0.8667    0.0000 C   0  0  0  0  0  0  0  0  0  0  0  0
    1.2417    1.2750    0.0000 C   0  0  0  0  0  0  0  0  0  0  0  0
    1.2417   -0.1542    0.0000 C   0  0  0  0  0  0  0  0  0  0  0  0
    3.7042   -4.4292    0.0000 C   0  0  0  0  0  0  0  0  0  0  0  0
    8.2167   -2.2917    0.0000 C   0  0  0  0  0  0  0  0  0  0  0  0
    8.2167   -0.8667    0.0000 C   0  0  0  0  0  0  0  0  0  0  0  0
    4.9417   -3.7125    0.0000 C   0  0  0  0  0  0  0  0  0  0  0  0
    4.5292   -4.4292    0.0000 C   0  0  0  0  0  0  0  0  0  0  0  0
    0.8250    0.5583    0.0000 C   0  0  0  0  0  0  0  0  0  0  0  0
    8.6292   -1.5792    0.0000 C   0  0  0  0  0  0  0  0  0  0  0  0
  2 10  1  0
  3 11  1  0
  4  1  1  0
  5  2  1  0
  6  1  1  0
  7  1  2  0
  8  6  1  0
  9  2  2  0
 10 12  1  0
 11  8  1  0
 12  8  1  0
 13  4  1  0
 14  5  1  0
 16  3  1  0
 17  3  1  0
 18 13  2  0
 19 13  1  0
 20 14  2  0
 21 14  1  0
 22 16  1  0
 23 17  1  0
 24 19  2  0
 25 20  1  0
 26 21  2  0
 27 18  1  0
 28 24  1  0
 29 22  1  0
 30 25  2  0
 28 27  2  0
 23 29  1  0
 26 30  1  0
M  END
>  <ID>  (965) 


>  <MOLENAME>  (965) 
DIPERODON HYDROCHLORIDE

>  <therap>  (965) 
analgesic, anesthetic

>  <ref>  (965) 
Int. J. Chemoinf. Chem. Eng. (2011), 1(2), 15-35; Int. J. Mol. Sci. (2006), 7(1), 12-34; Experientia (1964), 20(10), 582-3

>  <cas#>  (965) 
537-12-2

>  <source>  (965) 
synthetic

>  <status>  (965) 
USP-XXII, INN, BAN

>  <tradename>  (965) 
nan

>  <SMILES>  (965) 
O=C(Nc1ccccc1)OCC(CN1CCCCC1)OC(=O)Nc1ccccc1

>  <standardized_failed>  (965) 
False

$$$$

     RDKit          2D

 33 37  0  0  0  0  0  0  0  0999 V2000
    3.0667   -1.3625    0.0000 C   0  0  0  0  0  0  0  0  0  0  0  0
    2.3542   -0.9542    0.0000 N   0  0  0  0  0  0  0  0  0  0  0  0
    3.0750   -2.1917    0.0000 C   0  0  0  0  0  0  0  0  0  0  0  0
    3.7792   -0.9417    0.0000 C   0  0  0  0  0  0  0  0  0  0  0  0
    2.3625   -2.6042    0.0000 N   0  0  0  0  0  0  0  0  0  0  0  0
    4.5042   -2.1792    0.0000 C   0  0  0  0  0  0  0  0  0  0  0  0
    4.5000   -1.3500    0.0000 C   0  0  0  0  0  0  0  0  0  0  0  0
    3.7917   -2.6000    0.0000 C   0  0  0  0  0  0  0  0  0  0  0  0
    1.6417   -1.3667    0.0000 C   0  0  0  0  0  0  0  0  0  0  0  0
    1.6417   -2.1917    0.0000 C   0  0  0  0  0  0  0  0  0  0  0  0
    5.2125   -0.9292    0.0000 N   0  0  0  0  0  0  0  0  0  0  0  0
    5.2292   -2.5917    0.0000 N   0  0  0  0  0  0  0  0  0  0  0  0
    2.3500   -0.1292    0.0000 C   0  0  0  0  0  0  0  0  0  0  0  0
    3.0625    0.2833    0.0000 C   0  0  0  0  0  0  0  0  0  0  0  0
    1.6375    0.2708    0.0000 C   0  0  0  0  0  0  0  0  0  0  0  0
    5.2292   -3.4167    0.0000 C   0  0  0  0  0  0  0  0  0  0  0  0
    2.3417    1.5125    0.0000 C   0  0  0  0  0  0  0  0  0  0  0  0
    5.2417   -5.0625    0.0000 C   0  0  0  0  0  0  0  0  0  0  0  0
    1.6292    1.0958    0.0000 C   0  0  0  0  0  0  0  0  0  0  0  0
    3.0542    1.1083    0.0000 C   0  0  0  0  0  0  0  0  0  0  0  0
    5.2042   -0.1042    0.0000 C   0  0  0  0  0  0  0  0  0  0  0  0
    5.2500   -5.8875    0.0000 Cl  0  0  0  0  0  0  0  0  0  0  0  0
    2.3375    2.3375    0.0000 Cl  0  0  0  0  0  0  0  0  0  0  0  0
    4.5167   -3.8292    0.0000 C   0  0  0  0  0  0  0  0  0  0  0  0
    5.9417   -3.8167    0.0000 C   0  0  0  0  0  0  0  0  0  0  0  0
    5.9542   -4.6375    0.0000 C   0  0  0  0  0  0  0  0  0  0  0  0
    4.5250   -4.6542    0.0000 C   0  0  0  0  0  0  0  0  0  0  0  0
    0.9292   -0.9542    0.0000 C   0  0  0  0  0  0  0  0  0  0  0  0
    0.9292   -2.6125    0.0000 C   0  0  0  0  0  0  0  0  0  0  0  0
    4.4875    0.3083    0.0000 C   0  0  0  0  0  0  0  0  0  0  0  0
    5.9167    0.3208    0.0000 C   0  0  0  0  0  0  0  0  0  0  0  0
    0.2167   -1.3750    0.0000 C   0  0  0  0  0  0  0  0  0  0  0  0
    0.2167   -2.2000    0.0000 C   0  0  0  0  0  0  0  0  0  0  0  0
  2  1  1  0
  3  1  1  0
  4  1  2  0
  5  3  2  0
  6  7  1  0
  7  4  1  0
  8  3  1  0
  9  2  1  0
 10  5  1  0
 11  7  2  0
 12  6  1  0
 13  2  1  0
 14 13  2  0
 15 13  1  0
 16 12  1  0
 17 19  1  0
 18 26  2  0
 19 15  2  0
 20 14  1  0
 21 11  1  0
 22 18  1  0
 23 17  1  0
 24 16  1  0
 25 16  2  0
 26 25  1  0
 27 24  2  0
 28  9  2  0
 29 10  2  0
 30 21  1  0
 31 21  1  0
 32 28  1  0
 33 29  1  0
  6  8  2  0
 10  9  1  0
 17 20  2  0
 33 32  2  0
 18 27  1  0
M  END
>  <ID>  (966) 


>  <MOLENAME>  (966) 
CLOFAZIMINE

>  <therap>  (966) 
antibacterial, antilepretic, antituberculosis

>  <ref>  (966) 
Arzneim Forsch 20:794, 1838 (1970); Br Med J 1:198 (1970)

>  <cas#>  (966) 
2030-63-9

>  <source>  (966) 
synthetic; NSC-141046, G-30320

>  <status>  (966) 
USP, INN, BAN

>  <tradename>  (966) 
LAMPRENE

>  <SMILES>  (966) 
CC(C)/N=c1\cc2-c(nc3ccccc3n2-c2ccc(Cl)cc2)cc1Nc1ccc(Cl)cc1

>  <standardized_failed>  (966) 
False

$$$$

     RDKit          2D

 24 25  0  0  0  0  0  0  0  0999 V2000
    4.8750   -1.8417    0.0000 N   0  0  0  0  0  0  0  0  0  0  0  0
    5.3667   -2.5125    0.0000 N   0  0  0  0  0  0  0  0  0  0  0  0
    4.8792   -3.1875    0.0000 C   0  0  0  0  0  0  0  0  0  0  0  0
    4.0917   -2.9292    0.0000 C   0  0  0  0  0  0  0  0  0  0  0  0
    4.0875   -2.1042    0.0000 C   0  0  0  0  0  0  0  0  0  0  0  0
    5.1250   -1.0542    0.0000 C   0  0  0  0  0  0  0  0  0  0  0  0
    5.1417   -3.9667    0.0000 O   0  0  0  0  0  0  0  0  0  0  0  0
    7.9917   -3.9667    0.0000 N   0  0  0  0  0  0  0  0  0  0  0  0
    3.3667   -3.3417    0.0000 C   0  0  0  0  0  0  0  0  0  0  0  0
    5.9292   -0.8792    0.0000 C   0  0  0  0  0  0  0  0  0  0  0  0
    8.5625   -2.4792    0.0000 Cl  0  0  0  0  0  0  0  0  0  0  0  0
    3.3667   -1.6917    0.0000 C   0  0  0  0  0  0  0  0  0  0  0  0
    6.5667   -3.9667    0.0000 C   0  0  0  0  0  0  0  0  0  0  0  0
    7.2792   -3.5542    0.0000 C   0  0  0  0  0  0  0  0  0  0  0  0
    5.8542   -3.5542    0.0000 C   0  0  0  0  0  0  0  0  0  0  0  0
    8.7042   -3.5542    0.0000 C   0  0  0  0  0  0  0  0  0  0  0  0
    7.9917   -4.7917    0.0000 C   0  0  0  0  0  0  0  0  0  0  0  0
    6.1750   -0.0917    0.0000 C   0  0  0  0  0  0  0  0  0  0  0  0
    6.4792   -1.4917    0.0000 C   0  0  0  0  0  0  0  0  0  0  0  0
    2.6542   -2.9292    0.0000 C   0  0  0  0  0  0  0  0  0  0  0  0
    2.6542   -2.1042    0.0000 C   0  0  0  0  0  0  0  0  0  0  0  0
    7.2917   -1.3125    0.0000 C   0  0  0  0  0  0  0  0  0  0  0  0
    6.9792    0.0833    0.0000 C   0  0  0  0  0  0  0  0  0  0  0  0
    7.5417   -0.5292    0.0000 C   0  0  0  0  0  0  0  0  0  0  0  0
  2  1  1  0
  3  2  2  0
  4  5  2  0
  5  1  1  0
  6  1  1  0
  7  3  1  0
  8 14  1  0
  9  4  1  0
 10  6  1  0
 12  5  1  0
 13 15  1  0
 14 13  1  0
 15  7  1  0
 16  8  1  0
 17  8  1  0
 18 10  2  0
 19 10  1  0
 20 21  1  0
 21 12  2  0
 22 19  2  0
 23 18  1  0
 24 23  2  0
  3  4  1  0
  9 20  2  0
 22 24  1  0
M  END
>  <ID>  (967) 


>  <MOLENAME>  (967) 
BENZYDAMINE HYDROCHLORIDE

>  <therap>  (967) 
analgesic, antipyretic, antiinflammatory

>  <ref>  (967) 
Eur J Pharmacol 3:157 (1968); Toxicol Appl Pharmacol 10:148 (1967); Arzneim Forsch 37:587 (1987)

>  <cas#>  (967) 
132-69-4

>  <source>  (967) 
 synthetic; AF-864

>  <status>  (967) 
USAN, INN, BAN, JAN

>  <tradename>  (967) 
TANTUM

>  <SMILES>  (967) 
CN(C)CCCOc1nn(Cc2ccccc2)c2c1cccc2

>  <standardized_failed>  (967) 
False

$$$$

     RDKit          2D

 30 34  0  0  0  0  0  0  0  0999 V2000
    6.2417   -1.5667    0.0000 C   0  0  0  0  0  0  0  0  0  0  0  0
    5.4625   -1.8125    0.0000 C   0  0  0  0  0  0  0  0  0  0  0  0
    5.4542   -2.6375    0.0000 C   0  0  0  0  0  0  0  0  0  0  0  0
    3.3125   -3.0292    0.0000 C   0  0  0  0  0  0  0  0  0  0  0  0
    4.7292   -3.0417    0.0000 C   0  0  0  0  0  0  0  0  0  0  0  0
    6.7167   -2.2375    0.0000 C   0  0  0  0  0  0  0  0  0  0  0  0
    4.0250   -2.6167    0.0000 C   0  0  0  0  0  0  0  0  0  0  0  0
    3.3042   -3.8542    0.0000 C   0  0  0  0  0  0  0  0  0  0  0  0
    7.0417   -1.3500    0.0000 O   0  0  0  0  0  0  0  0  0  0  0  0
    4.7542   -1.3917    0.0000 C   0  0  0  0  0  0  0  0  0  0  0  0
    7.8375   -1.5625    0.0000 C   0  0  0  0  0  0  0  0  0  0  0  0
    4.0292   -1.7917    0.0000 C   0  0  0  0  0  0  0  0  0  0  0  0
    7.5167   -2.0167    0.0000 O   0  0  0  0  0  0  0  0  0  0  0  0
    2.6000   -2.6167    0.0000 C   0  0  0  0  0  0  0  0  0  0  0  0
    6.2292   -2.9000    0.0000 C   0  0  0  0  0  0  0  0  0  0  0  0
    6.2417   -0.7417    0.0000 C   0  0  0  0  0  0  0  0  0  0  0  0
    2.6000   -4.2667    0.0000 C   0  0  0  0  0  0  0  0  0  0  0  0
    4.7375   -3.8625    0.0000 C   0  0  0  0  0  0  0  0  0  0  0  0
    1.8917   -3.0292    0.0000 C   0  0  0  0  0  0  0  0  0  0  0  0
    1.8917   -3.8542    0.0000 C   0  0  0  0  0  0  0  0  0  0  0  0
    4.0167   -4.2667    0.0000 C   0  0  0  0  0  0  0  0  0  0  0  0
    5.5167   -0.3292    0.0000 O   0  0  0  0  0  0  0  0  0  0  0  0
    1.1750   -4.2667    0.0000 O   0  0  0  0  0  0  0  0  0  0  0  0
    5.4542   -0.9875    0.0000 C   0  0  0  0  0  0  0  0  0  0  0  0
    3.3125   -1.3792    0.0000 O   0  0  0  0  0  0  0  0  0  0  0  0
    3.3042   -2.2042    0.0000 C   0  0  0  0  0  0  0  0  0  0  0  0
    6.9500   -0.3167    0.0000 C   0  0  0  0  0  0  0  0  0  0  0  0
    8.5667   -1.9375    0.0000 C   0  0  0  0  0  0  0  0  0  0  0  0
    8.2750   -0.9667    0.0000 C   0  0  0  0  0  0  0  0  0  0  0  0
    6.9417    0.5083    0.0000 O   0  0  0  0  0  0  0  0  0  0  0  0
  2  1  1  0
  3  2  1  0
  4  7  1  0
  5  3  1  0
  6  1  1  0
  7 12  1  0
  8  4  1  0
  1  9  1  0
 10  2  1  0
 11  9  1  0
 12 10  1  0
  6 13  1  0
 14  4  1  0
  6 15  1  6
  1 16  1  1
 17  8  2  0
 18  5  1  0
 19 14  2  0
 20 19  1  0
 21 18  1  0
 22 16  2  0
 23 20  2  0
  2 24  1  1
 12 25  1  1
  4 26  1  1
 27 16  1  0
 28 11  1  0
 29 11  1  0
 30 27  1  0
 15  3  1  0
 13 11  1  0
  7  5  1  0
 21  8  1  0
 20 17  1  0
M  END
>  <ID>  (968) 


>  <MOLENAME>  (968) 
DESONIDE

>  <therap>  (968) 
antiinflammatory, glucocorticoid

>  <ref>  (968) 
Toxicol. Appl. Pharmacol. (1971), 20(4), 522-37; Steroids (1965), 5(5), 615-35; J. Am. Chem. Soc. (1959), 81, 4573-4

>  <cas#>  (968) 
638-94-8

>  <source>  (968) 
semisynthetic; D-2083

>  <status>  (968) 
USAN, INN, BAN

>  <tradename>  (968) 
DESOWEN

>  <SMILES>  (968) 
CC1(C)O[C@@H]2CC3C4CCC5=CC(=O)C=C[C@]5(C)C4[C@@H](O)C[C@]3(C)[C@]2(C(=O)CO)O1

>  <standardized_failed>  (968) 
False

$$$$

     RDKit          2D

 24 25  0  0  0  0  0  0  0  0999 V2000
    4.2125   -1.0042    0.0000 C   0  0  0  0  0  0  0  0  0  0  0  0
    3.4917   -0.5917    0.0000 C   0  0  0  0  0  0  0  0  0  0  0  0
    6.8292   -1.5292    0.0000 N   0  0  0  0  0  0  0  0  0  0  0  0
    4.9250   -0.5917    0.0000 O   0  0  0  0  0  0  0  0  0  0  0  0
    4.2125   -1.8292    0.0000 O   0  0  0  0  0  0  0  0  0  0  0  0
    5.6042   -0.9875    0.0000 C   0  0  0  0  0  0  0  0  0  0  0  0
    2.7792   -1.0125    0.0000 C   0  0  0  0  0  0  0  0  0  0  0  0
    6.4167   -0.8125    0.0000 C   0  0  0  0  0  0  0  0  0  0  0  0
    7.6417   -0.3875    0.0000 Br  0  0  0  0  0  0  0  0  0  0  0  0
    6.2792   -2.1417    0.0000 C   0  0  0  0  0  0  0  0  0  0  0  0
    2.9042   -0.0042    0.0000 C   0  0  0  0  0  0  0  0  0  0  0  0
    5.5292   -1.8042    0.0000 C   0  0  0  0  0  0  0  0  0  0  0  0
    4.0792   -0.0042    0.0000 O   0  0  0  0  0  0  0  0  0  0  0  0
    7.2375   -2.2417    0.0000 C   0  0  0  0  0  0  0  0  0  0  0  0
    7.6250   -1.3125    0.0000 C   0  0  0  0  0  0  0  0  0  0  0  0
    2.7792   -1.8417    0.0000 C   0  0  0  0  0  0  0  0  0  0  0  0
    2.0667   -0.6000    0.0000 C   0  0  0  0  0  0  0  0  0  0  0  0
    3.0375    0.8208    0.0000 C   0  0  0  0  0  0  0  0  0  0  0  0
    2.0792   -0.1375    0.0000 C   0  0  0  0  0  0  0  0  0  0  0  0
    2.0667   -2.2542    0.0000 C   0  0  0  0  0  0  0  0  0  0  0  0
    1.3542   -1.0125    0.0000 C   0  0  0  0  0  0  0  0  0  0  0  0
    1.7042    0.6083    0.0000 C   0  0  0  0  0  0  0  0  0  0  0  0
    2.2917    1.1958    0.0000 C   0  0  0  0  0  0  0  0  0  0  0  0
    1.3542   -1.8417    0.0000 C   0  0  0  0  0  0  0  0  0  0  0  0
  2  1  1  0
  3  8  1  0
  4  1  1  0
  5  1  2  0
  6  4  1  0
  7  2  1  0
  8  6  1  0
 10 12  1  0
 11  2  1  0
 12  6  1  0
 13  2  1  0
 14  3  1  0
 15  3  1  0
 16  7  2  0
 17  7  1  0
 18 11  1  0
 19 11  1  0
 20 16  1  0
 21 17  2  0
 22 19  1  0
 23 18  1  0
 24 20  2  0
 10  3  1  0
 23 22  1  0
 21 24  1  0
M  CHG  2   3   1   9  -1
M  END
>  <ID>  (969) 


>  <MOLENAME>  (969) 
GLYCOPYRROLATE

>  <therap>  (969) 
anticholinergic

>  <ref>  (969) 
J Pharm Pharmacol 26:352 (1974); Toxicol Appl Pharmacol 17:361 (1970)

>  <cas#>  (969) 
596-51-0

>  <source>  (969) 
synthetic; AHR-504

>  <status>  (969) 
USAN, INN, BAN, JAN

>  <tradename>  (969) 
ROBINUL

>  <SMILES>  (969) 
C[N+]1(C)CCC(OC(=O)C(O)(c2ccccc2)C2CCCC2)C1

>  <standardized_failed>  (969) 
False

$$$$

     RDKit          2D

 49 55  0  0  0  0  0  0  0  0999 V2000
    9.2875   -2.6125    0.0000 N   0  0  0  0  0  0  0  0  0  0  0  0
    9.7667   -3.2792    0.0000 C   0  0  0  0  0  0  0  0  0  0  0  0
   -1.4583   -2.3000    0.0000 C   0  0  0  0  0  0  0  0  0  0  0  0
   10.5542   -3.0292    0.0000 N   0  0  0  0  0  0  0  0  0  0  0  0
   10.5542   -2.2042    0.0000 N   0  0  0  0  0  0  0  0  0  0  0  0
    9.7750   -1.9417    0.0000 C   0  0  0  0  0  0  0  0  0  0  0  0
   -1.4583   -3.1250    0.0000 C   0  0  0  0  0  0  0  0  0  0  0  0
   -2.2833   -2.2917    0.0000 C   0  0  0  0  0  0  0  0  0  0  0  0
   -0.6708   -2.5542    0.0000 O   0  0  0  0  0  0  0  0  0  0  0  0
   -2.6875   -1.5750    0.0000 N   0  0  0  0  0  0  0  0  0  0  0  0
   -2.9500   -0.2667    0.0000 N   0  0  0  0  0  0  0  0  0  0  0  0
   -1.4583   -1.4750    0.0000 O   0  0  0  0  0  0  0  0  0  0  0  0
    4.3417   -2.5917    0.0000 N   0  0  0  0  0  0  0  0  0  0  0  0
    5.9917   -2.6000    0.0000 N   0  0  0  0  0  0  0  0  0  0  0  0
   -0.7583   -3.5292    0.0000 C   0  0  0  0  0  0  0  0  0  0  0  0
   -3.5083   -1.4792    0.0000 N   0  0  0  0  0  0  0  0  0  0  0  0
    8.4667   -2.6125    0.0000 C   0  0  0  0  0  0  0  0  0  0  0  0
   -3.6708   -0.6667    0.0000 C   0  0  0  0  0  0  0  0  0  0  0  0
   -2.3458   -0.8250    0.0000 C   0  0  0  0  0  0  0  0  0  0  0  0
   -2.1750   -3.5292    0.0000 C   0  0  0  0  0  0  0  0  0  0  0  0
    9.5167   -4.0667    0.0000 O   0  0  0  0  0  0  0  0  0  0  0  0
   -0.7583   -4.3542    0.0000 C   0  0  0  0  0  0  0  0  0  0  0  0
    6.8167   -2.6042    0.0000 C   0  0  0  0  0  0  0  0  0  0  0  0
    3.5167   -2.5917    0.0000 C   0  0  0  0  0  0  0  0  0  0  0  0
   -0.1958   -1.8875    0.0000 C   0  0  0  0  0  0  0  0  0  0  0  0
    5.5792   -1.8792    0.0000 C   0  0  0  0  0  0  0  0  0  0  0  0
    4.7542   -1.8792    0.0000 C   0  0  0  0  0  0  0  0  0  0  0  0
    5.5750   -3.3125    0.0000 C   0  0  0  0  0  0  0  0  0  0  0  0
    4.7542   -3.3125    0.0000 C   0  0  0  0  0  0  0  0  0  0  0  0
   11.2167   -3.5167    0.0000 C   0  0  0  0  0  0  0  0  0  0  0  0
    8.0542   -1.8917    0.0000 C   0  0  0  0  0  0  0  0  0  0  0  0
    8.0500   -3.3250    0.0000 C   0  0  0  0  0  0  0  0  0  0  0  0
    7.2292   -1.8917    0.0000 C   0  0  0  0  0  0  0  0  0  0  0  0
    7.2250   -3.3167    0.0000 C   0  0  0  0  0  0  0  0  0  0  0  0
   -0.6750   -1.2167    0.0000 C   0  0  0  0  0  0  0  0  0  0  0  0
    3.1042   -3.3042    0.0000 C   0  0  0  0  0  0  0  0  0  0  0  0
    3.1042   -1.8792    0.0000 C   0  0  0  0  0  0  0  0  0  0  0  0
   -1.4708   -4.7625    0.0000 C   0  0  0  0  0  0  0  0  0  0  0  0
   -0.0375   -3.1167    0.0000 Cl  0  0  0  0  0  0  0  0  0  0  0  0
    1.0500   -2.5917    0.0000 O   0  0  0  0  0  0  0  0  0  0  0  0
   -2.1833   -4.3500    0.0000 C   0  0  0  0  0  0  0  0  0  0  0  0
    1.8750   -2.5917    0.0000 C   0  0  0  0  0  0  0  0  0  0  0  0
    0.6292   -1.8792    0.0000 C   0  0  0  0  0  0  0  0  0  0  0  0
    2.2792   -3.3042    0.0000 C   0  0  0  0  0  0  0  0  0  0  0  0
    2.2792   -1.8792    0.0000 C   0  0  0  0  0  0  0  0  0  0  0  0
   -1.4750   -5.5875    0.0000 Cl  0  0  0  0  0  0  0  0  0  0  0  0
   12.0042   -3.2625    0.0000 C   0  0  0  0  0  0  0  0  0  0  0  0
   11.2167   -4.3417    0.0000 C   0  0  0  0  0  0  0  0  0  0  0  0
   12.4875   -3.9292    0.0000 C   0  0  0  0  0  0  0  0  0  0  0  0
  2  1  1  0
  3  9  1  0
  4  2  1  0
  5  6  2  0
  6  1  1  0
  3  7  1  0
  3  8  1  6
  9 25  1  0
 10  8  1  0
 11 19  2  0
 12 35  1  0
 13 29  1  0
 14 23  1  0
 15  7  2  0
 16 10  1  0
 17  1  1  0
 18 16  2  0
 19 10  1  0
 20  7  1  0
 21  2  2  0
 22 15  1  0
 23 34  1  0
 24 13  1  0
 25 43  1  6
 26 14  1  0
 27 26  1  0
 28 14  1  0
 29 28  1  0
 30  4  1  0
 31 17  2  0
 32 17  1  0
 33 31  1  0
 34 32  2  0
 35 25  1  0
 36 24  2  0
 37 24  1  0
 38 41  1  0
 39 15  1  0
 40 42  1  0
 41 20  2  0
 42 45  1  0
 43 40  1  0
 44 36  1  0
 45 37  2  0
 46 38  1  0
 47 30  1  0
 48 30  1  0
 49 47  1  0
  4  5  1  0
 33 23  2  0
 27 13  1  0
 42 44  2  0
 12  3  1  0
 11 18  1  0
 22 38  2  0
M  END
>  <ID>  (970) 


>  <MOLENAME>  (970) 
ITRACONAZOLE

>  <therap>  (970) 
antifungal

>  <ref>  (970) 
Antimicrob. Agents Chemother. (1984), 26(4), 527-34; Antimicrob. Agents Chemother. (1984), 26(1), 5-9; J. Med. Chem. (1984), 27(7), 894-900

>  <cas#>  (970) 
84625-61-6

>  <source>  (970) 
synthetic; R-51211

>  <status>  (970) 
USAN, INN, BAN, JAN

>  <tradename>  (970) 
SPORANOX

>  <SMILES>  (970) 
CCC(C)n1ncn(-c2ccc(N3CCN(c4ccc(OC[C@H]5CO[C@](Cn6cncn6)(c6c(Cl)cc(Cl)cc6)O5)cc4)CC3)cc2)c1=O

>  <standardized_failed>  (970) 
False

$$$$

     RDKit          2D

 18 18  0  0  0  0  0  0  0  0999 V2000
    2.4542   -1.9042    0.0000 C   0  0  0  0  0  0  0  0  0  0  0  0
    3.1667   -1.4917    0.0000 C   0  0  0  0  0  0  0  0  0  0  0  0
    3.8792   -1.9000    0.0000 O   0  0  0  0  0  0  0  0  0  0  0  0
    1.7375   -1.4917    0.0000 C   0  0  0  0  0  0  0  0  0  0  0  0
    3.1625   -0.6667    0.0000 O   0  0  0  0  0  0  0  0  0  0  0  0
    4.5917   -1.4875    0.0000 C   0  0  0  0  0  0  0  0  0  0  0  0
    1.7292   -0.6667    0.0000 O   0  0  0  0  0  0  0  0  0  0  0  0
    2.4542   -2.7292    0.0000 C   0  0  0  0  0  0  0  0  0  0  0  0
    1.0250   -1.9042    0.0000 C   0  0  0  0  0  0  0  0  0  0  0  0
    5.3042   -1.8917    0.0000 C   0  0  0  0  0  0  0  0  0  0  0  0
    5.3000   -2.7167    0.0000 C   0  0  0  0  0  0  0  0  0  0  0  0
    6.0167   -1.4792    0.0000 C   0  0  0  0  0  0  0  0  0  0  0  0
    7.4417   -1.4792    0.0000 C   0  0  0  0  0  0  0  0  0  0  0  0
    6.7292   -1.8917    0.0000 C   0  0  0  0  0  0  0  0  0  0  0  0
    1.7375   -3.1417    0.0000 C   0  0  0  0  0  0  0  0  0  0  0  0
    4.5792   -3.1292    0.0000 C   0  0  0  0  0  0  0  0  0  0  0  0
    8.1542   -1.8875    0.0000 C   0  0  0  0  0  0  0  0  0  0  0  0
    1.0250   -2.7292    0.0000 C   0  0  0  0  0  0  0  0  0  0  0  0
  2  1  1  0
  3  2  1  0
  4  1  2  0
  5  2  2  0
  6  3  1  0
  7  4  1  0
  8  1  1  0
  9  4  1  0
 10  6  1  1
 10 11  1  0
 12 10  1  0
 13 14  1  0
 14 12  1  0
 15  8  2  0
 16 11  1  0
 17 13  1  0
 18 15  1  0
  9 18  2  0
M  END
>  <ID>  (971) 


>  <MOLENAME>  (971) 
OCTISALATE

>  <therap>  (971) 
sunscreen

>  <ref>  (971) 
J. Appl. Cosmetol. (1985), 3(1), 1-11; Food Cosmet. Toxicol. (1976), 14, Suppl., 765; Food Chem. Toxicol. (2007), 45 Suppl 1, S393-6,

>  <cas#>  (971) 
118-60-5

>  <source>  (971) 
synthetic

>  <status>  (971) 
USP, INN

>  <tradename>  (971) 
UVINUL

>  <SMILES>  (971) 
CCCC[C@@H](CC)COC(=O)c1c(O)cccc1

>  <standardized_failed>  (971) 
False

$$$$

     RDKit          2D

 32 33  0  0  0  0  0  0  0  0999 V2000
    5.1167   -2.1042    0.0000 C   0  0  0  0  0  0  0  0  0  0  0  0
    5.1167   -1.2750    0.0000 C   0  0  0  0  0  0  0  0  0  0  0  0
    4.4042   -2.5167    0.0000 N   0  0  0  0  0  0  0  0  0  0  0  0
    5.8375   -2.5125    0.0000 N   0  0  0  0  0  0  0  0  0  0  0  0
    4.4000   -0.8667    0.0000 N   0  0  0  0  0  0  0  0  0  0  0  0
    6.5417   -1.2625    0.0000 N   0  0  0  0  0  0  0  0  0  0  0  0
    5.8292   -0.8542    0.0000 C   0  0  0  0  0  0  0  0  0  0  0  0
    6.5542   -2.0917    0.0000 C   0  0  0  0  0  0  0  0  0  0  0  0
    3.6917   -2.1042    0.0000 C   0  0  0  0  0  0  0  0  0  0  0  0
    3.6917   -1.2792    0.0000 C   0  0  0  0  0  0  0  0  0  0  0  0
    1.4875   -5.3250    0.0000 P   0  0  0  0  0  0  0  0  0  0  0  0
    4.4042   -3.3417    0.0000 C   0  0  0  0  0  0  0  0  0  0  0  0
    2.9750   -2.5250    0.0000 C   0  0  0  0  0  0  0  0  0  0  0  0
    3.6417   -3.6042    0.0000 C   0  0  0  0  0  0  0  0  0  0  0  0
    3.6542   -4.4417    0.0000 C   0  0  0  0  0  0  0  0  0  0  0  0
    2.9750   -0.8667    0.0000 C   0  0  0  0  0  0  0  0  0  0  0  0
    2.2542   -2.1125    0.0000 C   0  0  0  0  0  0  0  0  0  0  0  0
    2.2542   -1.2792    0.0000 C   0  0  0  0  0  0  0  0  0  0  0  0
    2.8750   -4.7500    0.0000 C   0  0  0  0  0  0  0  0  0  0  0  0
    2.1250   -5.8500    0.0000 O   0  0  0  0  0  0  0  0  0  0  0  0
    1.2667   -6.1167    0.0000 O   0  0  0  0  0  0  0  0  0  0  0  0
    2.8917   -5.5625    0.0000 C   0  0  0  0  0  0  0  0  0  0  0  0
    5.8167   -0.0292    0.0000 O   0  0  0  0  0  0  0  0  0  0  0  0
    1.4792   -4.5000    0.0000 O   0  0  0  0  0  0  0  0  0  0  0  0
    7.2750   -2.5042    0.0000 O   0  0  0  0  0  0  0  0  0  0  0  0
    0.6625   -5.3250    0.0000 O   0  0  0  0  0  0  0  0  0  0  0  0
    2.9792   -3.1292    0.0000 O   0  0  0  0  0  0  0  0  0  0  0  0
    4.3292   -4.9167    0.0000 O   0  0  0  0  0  0  0  0  0  0  0  0
    2.3042   -4.0250    0.0000 O   0  0  0  0  0  0  0  0  0  0  0  0
   -0.0708   -4.1167    0.0000 Na  0  0  0  0  0 15  0  0  0  0  0  0
    1.5417   -2.5250    0.0000 C   0  0  0  0  0  0  0  0  0  0  0  0
    1.5500   -0.8750    0.0000 C   0  0  0  0  0  0  0  0  0  0  0  0
  2  1  1  0
  3  1  1  0
  4  1  2  0
  5  2  2  0
  6  8  1  0
  7  2  1  0
  8  4  1  0
  9  3  1  0
 10  9  2  0
 11 20  1  0
 12  3  1  0
 13  9  1  0
 14 12  1  0
 15 14  1  0
 16 10  1  0
 17 13  2  0
 18 17  1  0
 19 15  1  0
 20 22  1  0
 21 11  1  0
 22 19  1  0
 23  7  2  0
 24 11  2  0
 25  8  2  0
 26 11  1  0
 14 27  1  6
 15 28  1  1
 19 29  1  6
 31 17  1  0
 32 18  1  0
  7  6  1  0
  5 10  1  0
 18 16  2  0
M  CHG  2  21  -1  30   1
M  END
>  <ID>  (972) 


>  <MOLENAME>  (972) 
RIBOFLAVIN 5-PHOSPHATE SODIUM

>  <therap>  (972) 
vitamin, enzyme cofactor

>  <ref>  (972) 
Helv Chim Acta 35:457 (1952)

>  <cas#>  (972) 
130-40-5

>  <source>  (972) 
wdiespread in plants and animals

>  <status>  (972) 
USP, JAN

>  <tradename>  (972) 
nan

>  <SMILES>  (972) 
Cc1cc2c(cc1C)n(C[C@@H](O)[C@@H](O)[C@@H](O)COP(=O)(O)O)c1nc(=O)[nH]c(=O)c-1n2

>  <standardized_failed>  (972) 
False

$$$$

     RDKit          2D

 34 36  0  0  0  0  0  0  0  0999 V2000
    2.1042   -2.9000    0.0000 N   0  0  0  0  0  0  0  0  0  0  0  0
    7.9042   -1.1125    0.0000 S   0  0  0  0  0  0  0  0  0  0  0  0
    1.4917   -2.3500    0.0000 C   0  0  0  0  0  0  0  0  0  0  0  0
    8.6167   -1.5250    0.0000 N   0  0  0  0  0  0  0  0  0  0  0  0
    0.7792   -2.7625    0.0000 C   0  0  0  0  0  0  0  0  0  0  0  0
    2.9167   -2.3500    0.0000 C   0  0  0  0  0  0  0  0  0  0  0  0
    1.7750   -3.6542    0.0000 C   0  0  0  0  0  0  0  0  0  0  0  0
    0.9500   -3.5667    0.0000 C   0  0  0  0  0  0  0  0  0  0  0  0
    9.3292   -1.1125    0.0000 C   0  0  0  0  0  0  0  0  0  0  0  0
    7.1917   -1.5250    0.0000 C   0  0  0  0  0  0  0  0  0  0  0  0
    7.3167   -0.5250    0.0000 O   0  0  0  0  0  0  0  0  0  0  0  0
    8.4875   -0.5250    0.0000 O   0  0  0  0  0  0  0  0  0  0  0  0
   10.0417   -1.5250    0.0000 N   0  0  0  0  0  0  0  0  0  0  0  0
    1.5792   -1.5292    0.0000 O   0  0  0  0  0  0  0  0  0  0  0  0
    2.8917   -1.5250    0.0000 O   0  0  0  0  0  0  0  0  0  0  0  0
    9.3292   -0.2875    0.0000 O   0  0  0  0  0  0  0  0  0  0  0  0
    3.6292   -2.7625    0.0000 N   0  0  0  0  0  0  0  0  0  0  0  0
    6.4750   -1.1167    0.0000 C   0  0  0  0  0  0  0  0  0  0  0  0
    7.1917   -2.3500    0.0000 C   0  0  0  0  0  0  0  0  0  0  0  0
   10.7542   -1.1125    0.0000 C   0  0  0  0  0  0  0  0  0  0  0  0
    0.0667   -2.3500    0.0000 C   0  0  0  0  0  0  0  0  0  0  0  0
    5.7625   -1.5375    0.0000 C   0  0  0  0  0  0  0  0  0  0  0  0
    6.4792   -2.7625    0.0000 C   0  0  0  0  0  0  0  0  0  0  0  0
    5.7667   -2.3542    0.0000 C   0  0  0  0  0  0  0  0  0  0  0  0
    0.4000   -4.1875    0.0000 C   0  0  0  0  0  0  0  0  0  0  0  0
    4.3417   -2.3500    0.0000 C   0  0  0  0  0  0  0  0  0  0  0  0
   10.7500   -0.2875    0.0000 C   0  0  0  0  0  0  0  0  0  0  0  0
   11.4667   -1.5250    0.0000 C   0  0  0  0  0  0  0  0  0  0  0  0
   12.1750   -1.1125    0.0000 C   0  0  0  0  0  0  0  0  0  0  0  0
   11.4667    0.1208    0.0000 C   0  0  0  0  0  0  0  0  0  0  0  0
   12.1792   -0.2917    0.0000 C   0  0  0  0  0  0  0  0  0  0  0  0
    5.0625   -2.7542    0.0000 C   0  0  0  0  0  0  0  0  0  0  0  0
   12.8917    0.1250    0.0000 C   0  0  0  0  0  0  0  0  0  0  0  0
   -0.6458   -2.7625    0.0000 C   0  0  0  0  0  0  0  0  0  0  0  0
  2 10  1  0
  3  1  1  0
  4  2  1  0
  5  3  1  0
  6  1  1  0
  7  1  1  0
  8  7  1  0
  9  4  1  0
 10 19  2  0
 11  2  2  0
 12  2  2  0
 13  9  1  0
 14  3  2  0
 15  6  2  0
 16  9  2  0
 17  6  1  0
 18 22  2  0
 19 23  1  0
 20 13  1  1
 21  5  1  0
 22 24  1  0
 23 24  2  0
 24 32  1  0
 25  8  1  0
 26 17  1  0
 27 20  1  0
 28 20  1  0
 29 28  1  0
 30 27  1  0
 31 29  1  0
 32 26  1  0
 31 33  1  6
 34 21  1  0
  8  5  2  0
 18 10  1  0
 31 30  1  0
M  END
>  <ID>  (973) 


>  <MOLENAME>  (973) 
GLIMEPIRIDE

>  <therap>  (973) 
hypoglycemic, antidiabetic

>  <ref>  (973) 
Arzneim Forsch 38:1079, 1120 (1988); Arzneim Forsch 43:856 (1993) 

>  <cas#>  (973) 
93479-97-1

>  <source>  (973) 
synthetic; HOE-490

>  <status>  (973) 
USAN, INN, BAN

>  <tradename>  (973) 
AMARYL

>  <SMILES>  (973) 
CCC1=C(C)CN(C(=O)NCCc2ccc(S(=O)(=O)NC(=O)N[C@H]3CC[C@H](C)CC3)cc2)C1=O

>  <standardized_failed>  (973) 
False

$$$$

     RDKit          2D

 37 40  0  0  0  0  0  0  0  0999 V2000
    7.2667   -2.4000    0.0000 N   0  0  0  0  0  0  0  0  0  0  0  0
    6.4292   -2.4125    0.0000 C   0  0  0  0  0  0  0  0  0  0  0  0
    6.4292   -1.5792    0.0000 C   0  0  0  0  0  0  0  0  0  0  0  0
    7.2750   -1.5792    0.0000 C   0  0  0  0  0  0  0  0  0  0  0  0
    7.9667   -2.8167    0.0000 C   0  0  0  0  0  0  0  0  0  0  0  0
    8.6875   -2.4125    0.0000 C   0  0  0  0  0  0  0  0  0  0  0  0
    3.6792   -0.8375    0.0000 C   0  0  0  0  0  0  0  0  0  0  0  0
    4.4750   -0.6250    0.0000 C   0  0  0  0  0  0  0  0  0  0  0  0
    3.3000   -1.5667    0.0000 N   0  0  0  0  0  0  0  0  0  0  0  0
    5.8500   -0.9917    0.0000 N   0  0  0  0  0  0  0  0  0  0  0  0
    5.0542   -1.2042    0.0000 C   0  0  0  0  0  0  0  0  0  0  0  0
    7.9917   -1.1750    0.0000 S   0  0  0  0  0  0  0  0  0  0  0  0
    4.6875    0.1750    0.0000 N   0  0  0  0  0  0  0  0  0  0  0  0
    2.4917   -1.4292    0.0000 C   0  0  0  0  0  0  0  0  0  0  0  0
    5.7000    1.1833    0.0000 C   0  0  0  0  0  0  0  0  0  0  0  0
   10.1042   -2.4125    0.0000 N   0  0  0  0  0  0  0  0  0  0  0  0
    7.9625   -3.6292    0.0000 C   0  0  0  0  0  0  0  0  0  0  0  0
    3.1000   -0.2542    0.0000 C   0  0  0  0  0  0  0  0  0  0  0  0
    2.3625   -0.6167    0.0000 S   0  0  0  0  0  0  0  0  0  0  0  0
    9.3917   -2.8167    0.0000 C   0  0  0  0  0  0  0  0  0  0  0  0
    6.5250    1.1833    0.0000 C   0  0  0  0  0  0  0  0  0  0  0  0
    8.6917   -1.5917    0.0000 C   0  0  0  0  0  0  0  0  0  0  0  0
    5.4875    0.3833    0.0000 O   0  0  0  0  0  0  0  0  0  0  0  0
    5.8500   -2.9917    0.0000 O   0  0  0  0  0  0  0  0  0  0  0  0
    4.8375   -2.0042    0.0000 O   0  0  0  0  0  0  0  0  0  0  0  0
    8.6750   -4.0500    0.0000 O   0  0  0  0  0  0  0  0  0  0  0  0
    7.2417   -4.0375    0.0000 O   0  0  0  0  0  0  0  0  0  0  0  0
    6.9292    1.9000    0.0000 O   0  0  0  0  0  0  0  0  0  0  0  0
    1.9042   -2.0167    0.0000 N   0  0  0  0  0  0  0  0  0  0  0  0
    6.9375    0.4708    0.0000 O   0  0  0  0  0  0  0  0  0  0  0  0
   10.8167   -2.8292    0.0000 C   0  0  0  0  0  0  0  0  0  0  0  0
   10.1125   -1.5917    0.0000 C   0  0  0  0  0  0  0  0  0  0  0  0
    4.8750    1.1833    0.0000 C   0  0  0  0  0  0  0  0  0  0  0  0
    5.6917    2.0083    0.0000 C   0  0  0  0  0  0  0  0  0  0  0  0
   10.8292   -1.1875    0.0000 C   0  0  0  0  0  0  0  0  0  0  0  0
   11.5292   -2.4292    0.0000 C   0  0  0  0  0  0  0  0  0  0  0  0
   11.5417   -1.6042    0.0000 C   0  0  0  0  0  0  0  0  0  0  0  0
  2  1  1  0
  3  4  1  0
  4  1  1  0
  5  1  1  0
  6  5  2  0
  7  8  1  0
  8 11  1  0
  9  7  1  0
  3 10  1  1
 11 10  1  0
 12  4  1  0
 13  8  2  0
 14  9  2  0
 15 23  1  0
 16 20  1  0
 17  5  1  0
 18  7  2  0
 19 18  1  0
 20  6  1  0
 21 15  1  0
 22  6  1  0
 23 13  1  0
 24  2  2  0
 25 11  2  0
 26 17  1  0
 27 17  2  0
 28 21  2  0
 29 14  1  0
 30 21  1  0
 31 16  2  0
 32 16  1  0
 33 15  1  0
 34 15  1  0
 35 32  2  0
 36 31  1  0
 37 35  1  0
  2  3  1  0
 12 22  1  0
 36 37  2  0
 19 14  1  0
M  CHG  2  16   1  26  -1
M  END
>  <ID>  (974) 


>  <MOLENAME>  (974) 
CEFTAZIDIME

>  <therap>  (974) 
antibacterial

>  <ref>  (974) 
J Antimicrobial Chemother 12(suppl A):1 (1983); Drugs 29:105 (1985)

>  <cas#>  (974) 
72558-82-8

>  <source>  (974) 
semisynthetic

>  <status>  (974) 
USP, INN, BAN, JAN

>  <tradename>  (974) 
TAZIDIME

>  <SMILES>  (974) 
CC(C)(O/N=C(\C(=O)N[C@@H]1C(=O)N2C(C(=O)[O-])=C(C[n+]3ccccc3)CSC12)c1csc(N)n1)C(=O)O

>  <standardized_failed>  (974) 
False

$$$$

     RDKit          2D

 12 12  0  0  0  0  0  0  0  0999 V2000
    1.6875   -0.2167    0.0000 C   0  0  0  0  0  0  0  0  0  0  0  0
    1.2750    0.4958    0.0000 C   0  0  0  0  0  0  0  0  0  0  0  0
    0.4500    0.4958    0.0000 C   0  0  0  0  0  0  0  0  0  0  0  0
    1.2667   -0.9292    0.0000 O   0  0  0  0  0  0  0  0  0  0  0  0
    0.0417    1.2125    0.0000 C   0  0  0  0  0  0  0  0  0  0  0  0
    2.5042   -0.2167    0.0000 O   0  0  0  0  0  0  0  0  0  0  0  0
    1.2792    1.9250    0.0000 N   0  0  0  0  0  0  0  0  0  0  0  0
    0.4542    1.9250    0.0000 C   0  0  0  0  0  0  0  0  0  0  0  0
    0.0417   -0.2167    0.0000 C   0  0  0  0  0  0  0  0  0  0  0  0
   -0.7833    1.2125    0.0000 C   0  0  0  0  0  0  0  0  0  0  0  0
   -0.7833   -0.2167    0.0000 C   0  0  0  0  0  0  0  0  0  0  0  0
   -1.2000    0.4958    0.0000 C   0  0  0  0  0  0  0  0  0  0  0  0
  2  1  1  0
  3  2  1  0
  4  1  2  0
  5  3  1  0
  6  1  1  0
  7  8  1  0
  8  5  1  0
  9  3  1  0
 10  5  1  0
 11  9  1  0
 12 11  1  0
 12 10  1  0
M  END
>  <ID>  (975) 


>  <MOLENAME>  (975) 
GABAPENTIN

>  <therap>  (975) 
anticonvulsant

>  <ref>  (975) 
Epilepsia (1995), 36 Suppl 2S2-12; Drugs (1993), 46(3), 409-27; Curr. Probl. Epilepsy (1986), 4, 147-63

>  <cas#>  (975) 
60142-96-3

>  <source>  (975) 
synthetic; CI-945; GOE-3450

>  <status>  (975) 
USAN, INN, BAN

>  <tradename>  (975) 
NEURONTIN

>  <SMILES>  (975) 
NCC1CCCCC1CC(=O)O

>  <standardized_failed>  (975) 
False

$$$$

     RDKit          2D

 28 30  0  0  0  0  0  0  0  0999 V2000
    2.8167   -1.7875    0.0000 S   0  0  0  0  0  0  0  0  0  0  0  0
    7.1875   -3.2667    0.0000 C   0  0  0  0  0  0  0  0  0  0  0  0
    7.1875   -1.9375    0.0000 N   0  0  0  0  0  0  0  0  0  0  0  0
    6.4042   -2.1917    0.0000 C   0  0  0  0  0  0  0  0  0  0  0  0
    6.4042   -3.0167    0.0000 C   0  0  0  0  0  0  0  0  0  0  0  0
    7.6667   -2.6042    0.0000 C   0  0  0  0  0  0  0  0  0  0  0  0
    8.5000   -5.0167    0.0000 N   0  0  0  0  0  0  0  0  0  0  0  0
    7.4417   -4.0542    0.0000 C   0  0  0  0  0  0  0  0  0  0  0  0
    8.2417   -4.2292    0.0000 C   0  0  0  0  0  0  0  0  0  0  0  0
    5.6917   -3.4292    0.0000 C   0  0  0  0  0  0  0  0  0  0  0  0
    3.2292   -1.0375    0.0000 O   0  0  0  0  0  0  0  0  0  0  0  0
    2.4542   -2.5292    0.0000 O   0  0  0  0  0  0  0  0  0  0  0  0
    3.5417   -2.1917    0.0000 C   0  0  0  0  0  0  0  0  0  0  0  0
    2.0917   -1.3750    0.0000 C   0  0  0  0  0  0  0  0  0  0  0  0
    5.6917   -1.7792    0.0000 C   0  0  0  0  0  0  0  0  0  0  0  0
    4.9750   -2.1917    0.0000 C   0  0  0  0  0  0  0  0  0  0  0  0
    4.9750   -3.0167    0.0000 C   0  0  0  0  0  0  0  0  0  0  0  0
    4.2542   -1.7792    0.0000 C   0  0  0  0  0  0  0  0  0  0  0  0
    9.3167   -5.0167    0.0000 C   0  0  0  0  0  0  0  0  0  0  0  0
    5.0292   -4.7417    0.0000 Br  0  0  0  0  0  0  0  0  0  0  0  0
    8.0125   -5.7000    0.0000 C   0  0  0  0  0  0  0  0  0  0  0  0
    9.5875   -4.2417    0.0000 C   0  0  0  0  0  0  0  0  0  0  0  0
    8.9167   -3.7500    0.0000 C   0  0  0  0  0  0  0  0  0  0  0  0
    1.3792   -1.7917    0.0000 C   0  0  0  0  0  0  0  0  0  0  0  0
    2.0917   -0.5500    0.0000 C   0  0  0  0  0  0  0  0  0  0  0  0
    1.3792   -0.1375    0.0000 C   0  0  0  0  0  0  0  0  0  0  0  0
    0.6542   -1.3875    0.0000 C   0  0  0  0  0  0  0  0  0  0  0  0
    0.6500   -0.5542    0.0000 C   0  0  0  0  0  0  0  0  0  0  0  0
  2  5  1  0
  3  4  1  0
  4 15  2  0
  5 10  2  0
  6  3  1  0
  7  9  1  0
  8  2  1  0
  9  8  1  1
 10 17  1  0
 11  1  2  0
 12  1  2  0
 13  1  1  0
 14  1  1  0
 15 16  1  0
 16 18  1  0
 17 16  2  0
 18 13  1  0
 19  7  1  0
 21  7  1  0
 22 23  1  0
 23  9  1  0
 24 14  2  0
 25 14  1  0
 26 25  2  0
 27 24  1  0
 28 27  2  0
 26 28  1  0
  4  5  1  0
  2  6  2  0
 19 22  1  0
M  END
>  <ID>  (976) 


>  <MOLENAME>  (976) 
ELETRIPTAN HYDROBROMIDE

>  <therap>  (976) 
5-HT agonist, anti-migrane

>  <ref>  (976) 
Eur J Pharmacol 368:259 (1999); CNS Drugs 12:325 (1999); Neurology 54:156 (2000)

>  <cas#>  (976) 
177834-92-3, 143322-58-1(base)

>  <source>  (976) 
synthetic; UK-116044-04

>  <status>  (976) 
USAN, INN, BAN

>  <tradename>  (976) 
RELPAX

>  <SMILES>  (976) 
CN1CCC[C@@H]1Cc1c[nH]c2cc(CCS(=O)(=O)c3ccccc3)ccc12

>  <standardized_failed>  (976) 
False

$$$$

     RDKit          2D

 30 33  0  0  0  0  0  0  0  0999 V2000
    6.7000   -4.1417    0.0000 N   0  0  0  0  0  0  0  0  0  0  0  0
   -1.9250   -0.6000    0.0000 C   0  0  0  0  0  0  0  0  0  0  0  0
   -0.6958   -1.3125    0.0000 N   0  0  0  0  0  0  0  0  0  0  0  0
   -1.5125   -1.3125    0.0000 C   0  0  0  0  0  0  0  0  0  0  0  0
    5.8792   -4.1417    0.0000 C   0  0  0  0  0  0  0  0  0  0  0  0
    7.1167   -4.8542    0.0000 C   0  0  0  0  0  0  0  0  0  0  0  0
    0.9500   -1.3042    0.0000 N   0  0  0  0  0  0  0  0  0  0  0  0
    5.4667   -3.4375    0.0000 C   0  0  0  0  0  0  0  0  0  0  0  0
    5.4667   -4.8542    0.0000 C   0  0  0  0  0  0  0  0  0  0  0  0
   -2.7500   -0.6042    0.0000 C   0  0  0  0  0  0  0  0  0  0  0  0
   -0.2875   -0.5917    0.0000 C   0  0  0  0  0  0  0  0  0  0  0  0
   -0.2833   -2.0250    0.0000 C   0  0  0  0  0  0  0  0  0  0  0  0
    7.9417   -4.8542    0.0000 O   0  0  0  0  0  0  0  0  0  0  0  0
   -1.5208    0.1125    0.0000 Cl  0  0  0  0  0  0  0  0  0  0  0  0
    5.8792   -5.5667    0.0000 C   0  0  0  0  0  0  0  0  0  0  0  0
    4.6417   -4.8667    0.0000 C   0  0  0  0  0  0  0  0  0  0  0  0
    0.5375   -2.0167    0.0000 C   0  0  0  0  0  0  0  0  0  0  0  0
    0.5375   -0.5917    0.0000 C   0  0  0  0  0  0  0  0  0  0  0  0
    4.6500   -3.4417    0.0000 C   0  0  0  0  0  0  0  0  0  0  0  0
    6.7042   -5.5667    0.0000 C   0  0  0  0  0  0  0  0  0  0  0  0
   -3.1708    0.1083    0.0000 Cl  0  0  0  0  0  0  0  0  0  0  0  0
    4.2292   -4.1542    0.0000 C   0  0  0  0  0  0  0  0  0  0  0  0
   -1.9250   -2.0250    0.0000 C   0  0  0  0  0  0  0  0  0  0  0  0
    4.2375   -2.7292    0.0000 O   0  0  0  0  0  0  0  0  0  0  0  0
    1.7667   -1.3042    0.0000 C   0  0  0  0  0  0  0  0  0  0  0  0
   -2.7500   -2.0250    0.0000 C   0  0  0  0  0  0  0  0  0  0  0  0
   -3.1583   -1.3167    0.0000 C   0  0  0  0  0  0  0  0  0  0  0  0
    3.4167   -2.7292    0.0000 C   0  0  0  0  0  0  0  0  0  0  0  0
    2.1792   -2.0167    0.0000 C   0  0  0  0  0  0  0  0  0  0  0  0
    3.0042   -2.0167    0.0000 C   0  0  0  0  0  0  0  0  0  0  0  0
  2  4  2  0
  3 11  1  0
  4  3  1  0
  5  1  1  0
  6  1  1  0
  7 25  1  0
  8  5  1  0
  9  5  2  0
 10  2  1  0
 11 18  1  0
 12 17  1  0
 13  6  2  0
 14  2  1  0
 15 20  1  0
 16  9  1  0
 17  7  1  0
 18  7  1  0
 19  8  2  0
 20  6  1  0
 21 10  1  0
 22 16  2  0
 23  4  1  0
 24 19  1  0
 25 29  1  0
 26 23  2  0
 27 26  1  0
 28 24  1  0
 29 30  1  0
 30 28  1  0
 15  9  1  0
 22 19  1  0
 12  3  1  0
 27 10  2  0
M  END
>  <ID>  (977) 


>  <MOLENAME>  (977) 
ARIPIPRAZOLE

>  <therap>  (977) 
antipsychotic, 5HT2A antagonist

>  <ref>  (977) 
J Med Chem 41:658 (1998); J Clin Psychiatry 63:763 (2001); Eur J Pharmacol 441:137 (2002)

>  <cas#>  (977) 
129722-12-9

>  <source>  (977) 
synthetic; OPC-14597, OPC-31

>  <status>  (977) 
USAN, INN, BAN

>  <tradename>  (977) 
ABILIFY

>  <SMILES>  (977) 
O=C1CCc2c(cc(OCCCCN3CCN(c4c(Cl)c(Cl)ccc4)CC3)cc2)N1

>  <standardized_failed>  (977) 
False

$$$$

     RDKit          2D

 16 17  0  0  0  0  0  0  0  0999 V2000
    5.0125   -2.3667    0.0000 C   0  0  0  0  0  0  0  0  0  0  0  0
    4.5292   -3.0417    0.0000 S   0  0  0  0  0  0  0  0  0  0  0  0
    6.2417   -3.0792    0.0000 N   0  0  0  0  0  0  0  0  0  0  0  0
    5.8292   -2.3667    0.0000 C   0  0  0  0  0  0  0  0  0  0  0  0
    4.5167   -1.7042    0.0000 C   0  0  0  0  0  0  0  0  0  0  0  0
    7.0667   -3.0792    0.0000 C   0  0  0  0  0  0  0  0  0  0  0  0
    3.7417   -2.7917    0.0000 C   0  0  0  0  0  0  0  0  0  0  0  0
    3.7375   -1.9667    0.0000 C   0  0  0  0  0  0  0  0  0  0  0  0
    7.4750   -2.3667    0.0000 O   0  0  0  0  0  0  0  0  0  0  0  0
    7.4792   -3.7917    0.0000 N   0  0  0  0  0  0  0  0  0  0  0  0
    5.8292   -3.7917    0.0000 O   0  0  0  0  0  0  0  0  0  0  0  0
    6.2417   -1.6542    0.0000 C   0  0  0  0  0  0  0  0  0  0  0  0
    3.0167   -3.2042    0.0000 C   0  0  0  0  0  0  0  0  0  0  0  0
    3.0167   -1.5542    0.0000 C   0  0  0  0  0  0  0  0  0  0  0  0
    2.3042   -1.9667    0.0000 C   0  0  0  0  0  0  0  0  0  0  0  0
    2.3042   -2.7917    0.0000 C   0  0  0  0  0  0  0  0  0  0  0  0
  2  1  1  0
  3  4  1  0
  4  1  1  0
  5  1  2  0
  6  3  1  0
  7  2  1  0
  8  5  1  0
  9  6  2  0
 10  6  1  0
 11  3  1  0
 12  4  1  0
 13  7  2  0
 14  8  2  0
 15 14  1  0
 16 13  1  0
  7  8  1  0
 16 15  2  0
M  END
>  <ID>  (978) 


>  <MOLENAME>  (978) 
ZILEUTON

>  <therap>  (978) 
5-lipoxygenase inhibitor

>  <ref>  (978) 
Int J Immunopharmacol 14:505 (1992); Lancet 348:519 (1996)

>  <cas#>  (978) 
111406-87-2

>  <source>  (978) 
synthetic; Abbott-64077

>  <status>  (978) 
USP, INN, BAN

>  <tradename>  (978) 
ZYFLO

>  <SMILES>  (978) 
CC(c1cc2ccccc2s1)N(O)C(N)=O

>  <standardized_failed>  (978) 
False

$$$$

     RDKit          2D

 26 30  0  0  0  0  0  0  0  0999 V2000
    5.4417   -4.5417    0.0000 N   0  0  0  0  0  0  0  0  0  0  0  0
    5.8167   -3.8167    0.0000 C   0  0  0  0  0  0  0  0  0  0  0  0
    5.8875   -5.2375    0.0000 C   0  0  0  0  0  0  0  0  0  0  0  0
    5.2292   -3.2292    0.0000 C   0  0  0  0  0  0  0  0  0  0  0  0
    4.6250   -4.4042    0.0000 C   0  0  0  0  0  0  0  0  0  0  0  0
    6.9792   -4.9792    0.0000 C   0  0  0  0  0  0  0  0  0  0  0  0
    7.1917   -4.1917    0.0000 C   0  0  0  0  0  0  0  0  0  0  0  0
    6.6125   -3.6042    0.0000 C   0  0  0  0  0  0  0  0  0  0  0  0
    4.5042   -3.6042    0.0000 C   0  0  0  0  0  0  0  0  0  0  0  0
    6.8250   -2.8250    0.0000 N   0  0  0  0  0  0  0  0  0  0  0  0
    5.4167   -5.9292    0.0000 C   0  0  0  0  0  0  0  0  0  0  0  0
    5.4417   -2.4500    0.0000 C   0  0  0  0  0  0  0  0  0  0  0  0
    6.2417   -2.2375    0.0000 C   0  0  0  0  0  0  0  0  0  0  0  0
    4.5917   -5.8750    0.0000 O   0  0  0  0  0  0  0  0  0  0  0  0
    7.9792   -3.9875    0.0000 C   0  0  0  0  0  0  0  0  0  0  0  0
    7.9000   -4.6042    0.0000 C   0  0  0  0  0  0  0  0  0  0  0  0
    5.7917   -6.6667    0.0000 O   0  0  0  0  0  0  0  0  0  0  0  0
    3.9792   -4.9125    0.0000 C   0  0  0  0  0  0  0  0  0  0  0  0
    7.6250   -2.6125    0.0000 C   0  0  0  0  0  0  0  0  0  0  0  0
    3.7417   -3.2917    0.0000 C   0  0  0  0  0  0  0  0  0  0  0  0
    8.2000   -3.1917    0.0000 C   0  0  0  0  0  0  0  0  0  0  0  0
    6.6167   -6.7167    0.0000 C   0  0  0  0  0  0  0  0  0  0  0  0
    7.8917   -5.4375    0.0000 C   0  0  0  0  0  0  0  0  0  0  0  0
    3.2125   -4.6042    0.0000 C   0  0  0  0  0  0  0  0  0  0  0  0
    3.0917   -3.8042    0.0000 C   0  0  0  0  0  0  0  0  0  0  0  0
    6.9875   -7.4542    0.0000 C   0  0  0  0  0  0  0  0  0  0  0  0
  2  1  1  0
  3  1  1  0
  4  2  2  0
  5  1  1  0
  6  3  2  0
  7  6  1  0
  8  2  1  0
  9  5  2  0
  8 10  1  1
 11  3  1  0
 12  4  1  0
 13 10  1  0
 14 11  2  0
 15  7  1  0
  7 16  1  6
 17 11  1  0
 18  5  1  0
 19 10  1  0
 20  9  1  0
 21 15  1  0
 22 17  1  0
 23 16  1  0
 24 18  2  0
 25 24  1  0
 26 22  1  0
  9  4  1  0
  7  8  1  0
 25 20  2  0
 12 13  1  0
 19 21  1  0
M  END
>  <ID>  (979) 


>  <MOLENAME>  (979) 
VINPOCETINE

>  <therap>  (979) 
cerebral vasodilator, antimotion

>  <ref>  (979) 
Arzneimittel-Forsch 26: 1907 (1976)

>  <cas#>  (979) 
42971-09-5

>  <source>  (979) 
vincamine Vinca minor; AY-27255

>  <status>  (979) 
USAN, INN, JAN

>  <tradename>  (979) 
nan

>  <SMILES>  (979) 
CCOC(=O)C1=C[C@]2(CC)CCCN3CCc4c([C@@H]32)n1c1c4cccc1

>  <standardized_failed>  (979) 
False

$$$$

     RDKit          2D

 26 27  0  0  0  0  0  0  0  0999 V2000
    1.7667   -3.4917    0.0000 C   0  0  0  0  0  0  0  0  0  0  0  0
    1.2792   -2.8250    0.0000 N   0  0  0  0  0  0  0  0  0  0  0  0
    1.2875   -4.1667    0.0000 N   0  0  0  0  0  0  0  0  0  0  0  0
    2.5917   -3.4917    0.0000 S   0  0  0  0  0  0  0  0  0  0  0  0
    3.8250   -4.2042    0.0000 C   0  0  0  0  0  0  0  0  0  0  0  0
    3.0042   -4.2042    0.0000 C   0  0  0  0  0  0  0  0  0  0  0  0
    0.4917   -3.0875    0.0000 C   0  0  0  0  0  0  0  0  0  0  0  0
    4.2292   -4.9167    0.0000 C   0  0  0  0  0  0  0  0  0  0  0  0
    0.4917   -3.9167    0.0000 C   0  0  0  0  0  0  0  0  0  0  0  0
    4.2292   -3.5000    0.0000 N   0  0  0  0  0  0  0  0  0  0  0  0
    5.0500   -4.9167    0.0000 C   0  0  0  0  0  0  0  0  0  0  0  0
    3.0000   -2.7792    0.0000 O   0  0  0  0  0  0  0  0  0  0  0  0
    5.0500   -3.4917    0.0000 C   0  0  0  0  0  0  0  0  0  0  0  0
    5.4625   -4.2042    0.0000 C   0  0  0  0  0  0  0  0  0  0  0  0
    5.4542   -5.6292    0.0000 O   0  0  0  0  0  0  0  0  0  0  0  0
    1.9042   -1.7792    0.0000 Na  0  0  0  0  0 15  0  0  0  0  0  0
    6.6875   -6.3417    0.0000 C   0  0  0  0  0  0  0  0  0  0  0  0
    3.8167   -5.6292    0.0000 C   0  0  0  0  0  0  0  0  0  0  0  0
   -0.2250   -2.6750    0.0000 C   0  0  0  0  0  0  0  0  0  0  0  0
   -0.2250   -4.3292    0.0000 C   0  0  0  0  0  0  0  0  0  0  0  0
    7.9167   -7.0542    0.0000 O   0  0  0  0  0  0  0  0  0  0  0  0
    6.2792   -5.6292    0.0000 C   0  0  0  0  0  0  0  0  0  0  0  0
    7.5042   -6.3417    0.0000 C   0  0  0  0  0  0  0  0  0  0  0  0
    8.7375   -7.0542    0.0000 C   0  0  0  0  0  0  0  0  0  0  0  0
   -0.9375   -3.0875    0.0000 C   0  0  0  0  0  0  0  0  0  0  0  0
   -0.9375   -3.9167    0.0000 C   0  0  0  0  0  0  0  0  0  0  0  0
  2  1  1  0
  3  1  2  0
  4  1  1  0
  5  6  1  0
  6  4  1  0
  7  2  1  0
  8  5  2  0
  9  3  1  0
 10  5  1  0
 11  8  1  0
 12  4  2  0
 13 10  2  0
 14 13  1  0
 15 11  1  0
 17 22  1  0
 18  8  1  0
 19  7  2  0
 20  9  2  0
 21 23  1  0
 22 15  1  0
 23 17  1  0
 24 21  1  0
 25 19  1  0
 26 20  1  0
  9  7  1  0
 26 25  2  0
 14 11  2  0
M  CHG  2   2  -1  16   1
M  END
>  <ID>  (980) 


>  <MOLENAME>  (980) 
RABEPRAZOLE SODIUM

>  <therap>  (980) 
gastric acid secretion inhibitor

>  <ref>  (980) 
Dig Dis Sci 43:993 (1998); Expert Opin Pharmacother 5:137 (2004)

>  <cas#>  (980) 
117976-90-6

>  <source>  (980) 
synthetic; LY-307640, E-3810

>  <status>  (980) 
USAN, INN, BAN

>  <tradename>  (980) 
ACIPHEX

>  <SMILES>  (980) 
COCCCOc1ccnc(C[S+]([O-])c2nc3ccccc3[nH]2)c1C

>  <standardized_failed>  (980) 
False

$$$$

     RDKit          2D

 18 17  0  0  0  0  0  0  0  0999 V2000
    6.7292   -1.0042    0.0000 C   0  0  0  0  0  0  0  0  0  0  0  0
    6.3042   -1.7167    0.0000 P   0  0  0  0  0  0  0  0  0  0  0  0
    7.4417   -1.4167    0.0000 P   0  0  0  0  0  0  0  0  0  0  0  0
    6.0042   -0.5917    0.0000 C   0  0  0  0  0  0  0  0  0  0  0  0
    5.4792   -1.7125    0.0000 O   0  0  0  0  0  0  0  0  0  0  0  0
    5.8917   -2.4292    0.0000 O   0  0  0  0  0  0  0  0  0  0  0  0
    8.1542   -1.8292    0.0000 O   0  0  0  0  0  0  0  0  0  0  0  0
    7.1292   -0.2875    0.0000 O   0  0  0  0  0  0  0  0  0  0  0  0
    5.2917    1.4708    0.0000 N   0  0  0  0  0  0  0  0  0  0  0  0
    6.7167   -2.4375    0.0000 O   0  0  0  0  0  0  0  0  0  0  0  0
    7.4417   -2.2417    0.0000 O   0  0  0  0  0  0  0  0  0  0  0  0
    8.1542   -1.0000    0.0000 O   0  0  0  0  0  0  0  0  0  0  0  0
    6.0042    0.2333    0.0000 C   0  0  0  0  0  0  0  0  0  0  0  0
    3.6042   -1.4875    0.0000 Na  0  0  0  0  0 15  0  0  0  0  0  0
    5.2917    0.6458    0.0000 C   0  0  0  0  0  0  0  0  0  0  0  0
    6.0042    1.8917    0.0000 C   0  0  0  0  0  0  0  0  0  0  0  0
    6.7292    0.6458    0.0000 C   0  0  0  0  0  0  0  0  0  0  0  0
    6.7292    1.4750    0.0000 C   0  0  0  0  0  0  0  0  0  0  0  0
  2  1  1  0
  3  1  1  0
  4  1  1  0
  5  2  1  0
  6  2  2  0
  7  3  2  0
  8  1  1  0
  9 15  2  0
 10  2  1  0
 11  3  1  0
 12  3  1  0
 13  4  1  0
 15 13  1  0
 16 18  2  0
 17 13  2  0
 18 17  1  0
  9 16  1  0
M  CHG  2   5  -1  14   1
M  END
>  <ID>  (981) 


>  <MOLENAME>  (981) 
RISEDRONATE SODIUM

>  <therap>  (981) 
calcium regulator

>  <ref>  (981) 
JAMA 282:1344 (1999); Drugs Aging 13:83 (1998)

>  <cas#>  (981) 
115436-72-1

>  <source>  (981) 
synthetic; NE-58095

>  <status>  (981) 
USAN

>  <tradename>  (981) 
ACTONEL

>  <SMILES>  (981) 
O=P(O)(O)C(O)(Cc1cccnc1)P(=O)(O)O

>  <standardized_failed>  (981) 
False

$$$$

     RDKit          2D

 11 12  0  0  0  0  0  0  0  0999 V2000
    5.5417   -2.4917    0.0000 O   0  0  0  0  0  0  0  0  0  0  0  0
    5.4167   -3.2792    0.0000 C   0  0  0  0  0  0  0  0  0  0  0  0
    6.5792   -2.2417    0.0000 C   0  0  0  0  0  0  0  0  0  0  0  0
    5.9167   -3.8667    0.0000 C   0  0  0  0  0  0  0  0  0  0  0  0
    7.1542   -3.7792    0.0000 C   0  0  0  0  0  0  0  0  0  0  0  0
    6.7042   -3.4917    0.0000 C   0  0  0  0  0  0  0  0  0  0  0  0
    7.4417   -3.0125    0.0000 C   0  0  0  0  0  0  0  0  0  0  0  0
    6.9125   -2.8875    0.0000 C   0  0  0  0  0  0  0  0  0  0  0  0
    4.5167   -3.3042    0.0000 C   0  0  0  0  0  0  0  0  0  0  0  0
    5.1125   -3.9292    0.0000 C   0  0  0  0  0  0  0  0  0  0  0  0
    6.8250   -1.5542    0.0000 C   0  0  0  0  0  0  0  0  0  0  0  0
  2  1  1  0
  3  1  1  0
  4  2  1  0
  5  7  1  0
  6  8  1  0
  7  3  1  0
  8  3  1  0
  9  2  1  0
 10  2  1  0
  3 11  1  6
  4  6  1  6
  5  4  1  0
M  END
>  <ID>  (982) 


>  <MOLENAME>  (982) 
EUCALYPTOL

>  <therap>  (982) 
anthelminthic, antiseptic, expectorant

>  <ref>  (982) 
Basic Clin. Pharmacol. Toxicol. (2011), 108(5), 295-296; Pharmacogn. Rev. (2008), 2(3), 151-156; Perfum. Flavor. (2000), 25(3), 6, 8-10, 12, 14-16.

>  <cas#>  (982) 
470-82-6

>  <source>  (982) 
eucalyptus and lavender oils

>  <status>  (982) 
USP

>  <tradename>  (982) 
nan

>  <SMILES>  (982) 
CC1(C)O[C@]2(C)CC[C@H]1CC2

>  <standardized_failed>  (982) 
False

$$$$

     RDKit          2D

 91 89  0  0  0  0  0  0  0  0999 V2000
    7.2417   -2.2750    0.0000 N   0  0  0  0  0  0  0  0  0  0  0  0
    7.9542   -5.7000    0.0000 N   0  0  0  0  0  0  0  0  0  0  0  0
    5.7417   -5.7000    0.0000 N   0  0  0  0  0  0  0  0  0  0  0  0
    7.0792   -5.7125    0.0000 C   0  0  0  0  0  0  0  0  0  0  0  0
    8.8667   -0.0792    0.0000 S   0  0  0  0  0  0  0  0  0  0  0  0
   -0.2833   -5.0000    0.0000 S   0  0  0  0  0  0  0  0  0  0  0  0
    6.1500   -2.2750    0.0000 C   0  0  0  0  0  0  0  0  0  0  0  0
    9.3917   -6.3625    0.0000 C   0  0  0  0  0  0  0  0  0  0  0  0
    2.1917   -1.3292    0.0000 C   0  0  0  0  0  0  0  0  0  0  0  0
    2.9125   -0.9167    0.0000 C   0  0  0  0  0  0  0  0  0  0  0  0
    9.7542   -5.7375    0.0000 N   0  0  0  0  0  0  0  0  0  0  0  0
    1.4792   -0.9167    0.0000 N   0  0  0  0  0  0  0  0  0  0  0  0
    7.6500   -3.0167    0.0000 C   0  0  0  0  0  0  0  0  0  0  0  0
    3.9292   -4.8292    0.0000 N   0  0  0  0  0  0  0  0  0  0  0  0
    8.7542   -3.8000    0.0000 N   0  0  0  0  0  0  0  0  0  0  0  0
    4.8667   -6.1417    0.0000 C   0  0  0  0  0  0  0  0  0  0  0  0
    9.0417   -4.5500    0.0000 C   0  0  0  0  0  0  0  0  0  0  0  0
    2.9917   -4.3625    0.0000 C   0  0  0  0  0  0  0  0  0  0  0  0
    6.4125   -6.0875    0.0000 C   0  0  0  0  0  0  0  0  0  0  0  0
    8.5542   -6.3625    0.0000 C   0  0  0  0  0  0  0  0  0  0  0  0
    0.7667   -1.3292    0.0000 C   0  0  0  0  0  0  0  0  0  0  0  0
    5.2750   -2.2750    0.0000 C   0  0  0  0  0  0  0  0  0  0  0  0
    3.1542   -2.2125    0.0000 C   0  0  0  0  0  0  0  0  0  0  0  0
    3.6167   -1.3375    0.0000 N   0  0  0  0  0  0  0  0  0  0  0  0
    2.5000   -2.8375    0.0000 N   0  0  0  0  0  0  0  0  0  0  0  0
    8.7542   -3.0250    0.0000 C   0  0  0  0  0  0  0  0  0  0  0  0
    3.9292   -5.5792    0.0000 C   0  0  0  0  0  0  0  0  0  0  0  0
    9.7542   -4.9625    0.0000 C   0  0  0  0  0  0  0  0  0  0  0  0
    2.9917   -3.5250    0.0000 C   0  0  0  0  0  0  0  0  0  0  0  0
    0.0667   -0.1417    0.0000 N   0  0  0  0  0  0  0  0  0  0  0  0
    3.9917   -2.2125    0.0000 C   0  0  0  0  0  0  0  0  0  0  0  0
    5.1167   -3.1417    0.0000 N   0  0  0  0  0  0  0  0  0  0  0  0
    0.0542   -0.9167    0.0000 C   0  0  0  0  0  0  0  0  0  0  0  0
   -0.6500    0.2708    0.0000 C   0  0  0  0  0  0  0  0  0  0  0  0
    8.0167   -0.0625    0.0000 O   0  0  0  0  0  0  0  0  0  0  0  0
    8.8917    0.6958    0.0000 O   0  0  0  0  0  0  0  0  0  0  0  0
   -0.2500   -4.2167    0.0000 O   0  0  0  0  0  0  0  0  0  0  0  0
   -1.1458   -4.9792    0.0000 O   0  0  0  0  0  0  0  0  0  0  0  0
    7.0875   -4.9375    0.0000 O   0  0  0  0  0  0  0  0  0  0  0  0
    9.8917   -6.8250    0.0000 O   0  0  0  0  0  0  0  0  0  0  0  0
    2.9042   -0.2375    0.0000 O   0  0  0  0  0  0  0  0  0  0  0  0
    4.8667   -6.8000    0.0000 O   0  0  0  0  0  0  0  0  0  0  0  0
    7.1167   -3.5500    0.0000 O   0  0  0  0  0  0  0  0  0  0  0  0
    8.5167   -4.8875    0.0000 O   0  0  0  0  0  0  0  0  0  0  0  0
    2.2500   -4.3625    0.0000 O   0  0  0  0  0  0  0  0  0  0  0  0
    0.7667   -2.1542    0.0000 O   0  0  0  0  0  0  0  0  0  0  0  0
    2.6250   -1.6500    0.0000 O   0  0  0  0  0  0  0  0  0  0  0  0
    4.7125   -1.7750    0.0000 O   0  0  0  0  0  0  0  0  0  0  0  0
    6.3042   -1.5500    0.0000 C   0  0  0  0  0  0  0  0  0  0  0  0
    2.1792   -0.0500    0.0000 C   0  0  0  0  0  0  0  0  0  0  0  0
    8.8750   -0.7667    0.0000 O   0  0  0  0  0  0  0  0  0  0  0  0
    9.6500   -0.0875    0.0000 O   0  0  0  0  0  0  0  0  0  0  0  0
    0.5125   -5.0042    0.0000 O   0  0  0  0  0  0  0  0  0  0  0  0
   -0.2750   -5.6875    0.0000 O   0  0  0  0  0  0  0  0  0  0  0  0
   -0.6500    1.0958    0.0000 O   0  0  0  0  0  0  0  0  0  0  0  0
    6.4042   -6.8625    0.0000 C   0  0  0  0  0  0  0  0  0  0  0  0
    8.4292   -7.1750    0.0000 C   0  0  0  0  0  0  0  0  0  0  0  0
    3.5917   -3.1125    0.0000 C   0  0  0  0  0  0  0  0  0  0  0  0
    4.3417   -3.5500    0.0000 C   0  0  0  0  0  0  0  0  0  0  0  0
    3.4292   -6.5500    0.0000 C   0  0  0  0  0  0  0  0  0  0  0  0
    9.4750   -2.6125    0.0000 C   0  0  0  0  0  0  0  0  0  0  0  0
   10.4750   -4.5500    0.0000 C   0  0  0  0  0  0  0  0  0  0  0  0
    4.1542   -1.0500    0.0000 C   0  0  0  0  0  0  0  0  0  0  0  0
   -0.6583   -1.3292    0.0000 C   0  0  0  0  0  0  0  0  0  0  0  0
    5.1500   -0.2750    0.0000 N   0  0  0  0  0  0  0  0  0  0  0  0
   -2.0875   -1.3292    0.0000 N   0  0  0  0  0  0  0  0  0  0  0  0
   11.9042   -4.5500    0.0000 N   0  0  0  0  0  0  0  0  0  0  0  0
   10.9042   -2.6125    0.0000 N   0  0  0  0  0  0  0  0  0  0  0  0
    2.0292   -7.2667    0.0000 N   0  0  0  0  0  0  0  0  0  0  0  0
    7.0875   -1.2750    0.0000 O   0  0  0  0  0  0  0  0  0  0  0  0
    1.4292    0.2875    0.0000 O   0  0  0  0  0  0  0  0  0  0  0  0
   -1.3750   -0.0917    0.0000 C   0  0  0  0  0  0  0  0  0  0  0  0
   10.1875   -3.0250    0.0000 C   0  0  0  0  0  0  0  0  0  0  0  0
    2.4042   -6.5500    0.0000 C   0  0  0  0  0  0  0  0  0  0  0  0
   11.1792   -4.9625    0.0000 C   0  0  0  0  0  0  0  0  0  0  0  0
   -1.3750   -0.9167    0.0000 C   0  0  0  0  0  0  0  0  0  0  0  0
    4.9000   -0.9625    0.0000 C   0  0  0  0  0  0  0  0  0  0  0  0
    7.0667   -7.2500    0.0000 C   0  0  0  0  0  0  0  0  0  0  0  0
    9.0667   -7.6917    0.0000 C   0  0  0  0  0  0  0  0  0  0  0  0
    5.6167   -1.0250    0.0000 C   0  0  0  0  0  0  0  0  0  0  0  0
    2.7792    0.3500    0.0000 C   0  0  0  0  0  0  0  0  0  0  0  0
    7.6542   -7.4750    0.0000 C   0  0  0  0  0  0  0  0  0  0  0  0
    5.7292   -7.2375    0.0000 C   0  0  0  0  0  0  0  0  0  0  0  0
   -4.2208   -0.1417    0.0000 C   0  0  0  0  0  0  0  0  0  0  0  0
   -2.0833    0.2708    0.0000 C   0  0  0  0  0  0  0  0  0  0  0  0
   -3.5083    0.2708    0.0000 C   0  0  0  0  0  0  0  0  0  0  0  0
   -2.7958   -0.1417    0.0000 C   0  0  0  0  0  0  0  0  0  0  0  0
   -4.9375    0.2708    0.0000 C   0  0  0  0  0  0  0  0  0  0  0  0
   -4.2208   -0.9667    0.0000 C   0  0  0  0  0  0  0  0  0  0  0  0
    7.0625   -8.0250    0.0000 C   0  0  0  0  0  0  0  0  0  0  0  0
    8.9417   -8.5042    0.0000 C   0  0  0  0  0  0  0  0  0  0  0  0
  2 20  1  0
  3 16  1  0
  4  2  1  0
  7  1  1  0
  8 11  1  0
  9 10  1  0
 10 24  1  0
 11 28  1  0
 12  9  1  0
 13  1  1  0
 14 18  1  0
 15 26  1  0
 16 27  1  0
 17 15  1  0
 18 29  1  0
 19  4  1  0
 20  8  1  0
 21 12  1  0
 22  7  1  0
 23 25  1  0
 24 31  1  0
 25 29  1  0
 26 13  1  0
 27 14  1  0
 28 17  1  0
 29 58  1  0
 30 33  1  0
 31 23  1  0
 32 22  1  0
 33 21  1  0
 34 30  1  0
 35  5  2  0
 36  5  2  0
 37  6  2  0
 38  6  2  0
 39  4  2  0
 40  8  2  0
 41 10  2  0
 42 16  2  0
 43 13  2  0
 44 17  2  0
 45 18  2  0
 46 21  2  0
 47 23  2  0
 48 22  2  0
 49  7  1  0
 50  9  1  0
 51  5  1  0
 52  5  1  0
 53  6  1  0
 54  6  1  0
 55 34  2  0
 56 19  1  0
 57 20  1  0
 58 59  1  0
 59 32  1  0
 60 27  1  0
 61 26  1  0
 62 28  1  0
 63 31  1  0
 64 33  1  0
 65 77  1  0
 66 76  1  0
 67 75  1  0
 68 73  1  0
 69 74  1  0
 70 49  1  0
 71 50  1  0
 72 34  1  0
 73 61  1  0
 74 60  1  0
 75 62  1  0
 76 64  1  0
 77 63  1  0
 78 56  1  0
 79 57  1  0
 80 49  1  0
 81 50  1  0
 82 57  1  0
 83 56  1  0
 84 86  1  0
 85 72  1  0
 86 87  1  0
 87 85  1  0
 88 84  1  0
 89 84  1  0
 90 78  1  0
 91 79  1  0
 19  3  1  0
M  END
>  <ID>  (983) 


>  <MOLENAME>  (983) 
COLISTIN SULFATE

>  <therap>  (983) 
antibacterial

>  <ref>  (983) 
J Biochem (Tokyo) 54:25, 173, 412 (1963); J Chem Soc 1964:4107

>  <cas#>  (983) 
1264-72-8

>  <source>  (983) 
Bacillus polymyxa colistinus; polymyxin E

>  <status>  (983) 
USP, INN, BAN, JAN

>  <tradename>  (983) 
BELCOMYCINE

>  <SMILES>  (983) 
CCC(C)C1NC(=O)C(CCN)NC(=O)C(NC(=O)C(CCN)NC(=O)C(NC(=O)C(CCN)NC(=O)CCCCC(C)C)C(C)O)CCNC(=O)C(C(C)O)NC(=O)C(CCN)NC(=O)C(CCN)NC(=O)C(C(C)CC)NC1=O

>  <standardized_failed>  (983) 
False

$$$$

     RDKit          2D

 13 12  0  0  0  0  0  0  0  0999 V2000
    6.8750   -5.7167    0.0000 C   0  0  0  0  0  0  0  0  0  0  0  0
    6.8750   -4.8917    0.0000 C   0  0  0  0  0  0  0  0  0  0  0  0
    6.1625   -6.1292    0.0000 C   0  0  0  0  0  0  0  0  0  0  0  0
    5.4417   -4.8917    0.0000 Pt  0  0  0  0  0  2  0  0  0  0  0  0
    6.1625   -4.4792    0.0000 O   0  0  0  0  0  0  0  0  0  0  0  0
    5.4417   -5.7167    0.0000 O   0  0  0  0  0  0  0  0  0  0  0  0
    6.1625   -6.9542    0.0000 O   0  0  0  0  0  0  0  0  0  0  0  0
    7.5917   -4.4667    0.0000 O   0  0  0  0  0  0  0  0  0  0  0  0
    7.6542   -5.4667    0.0000 C   0  0  0  0  0  0  0  0  0  0  0  0
    7.1250   -6.5042    0.0000 C   0  0  0  0  0  0  0  0  0  0  0  0
    5.1125   -3.9917    0.0000 N   0  0  0  0  0  0  0  0  0  0  0  0
    4.4250   -5.2125    0.0000 N   0  0  0  0  0  0  0  0  0  0  0  0
    7.9125   -6.2542    0.0000 C   0  0  0  0  0  0  0  0  0  0  0  0
  2  1  1  0
  3  1  1  0
  4  6  1  0
  5  2  1  0
  6  3  1  0
  7  3  2  0
  8  2  2  0
  9  1  1  0
 10  1  1  0
 13 10  1  0
  9 13  1  0
  5  4  1  0
M  END
>  <ID>  (984) 


>  <MOLENAME>  (984) 
CARBOPLATIN

>  <therap>  (984) 
antineoplastic, convulsant

>  <ref>  (984) 
Biochimie 60:835 (1978); Cancer Chemother Pharmacol 9:140 (1980); Eur J Cancer Clin Oncol 20:1087 (1984)

>  <cas#>  (984) 
41575-94-4

>  <source>  (984) 
synthetic

>  <status>  (984) 
USP, INN, BAN, JAN

>  <tradename>  (984) 
PARAPLATIN

>  <SMILES>  (984) 
N.N.O=C1O[Pt]OC(=O)C12CCC2

>  <standardized_failed>  (984) 
True

$$$$

     RDKit          2D

 20 17  0  0  0  0  0  0  0  0999 V2000
   -1.1875   -3.6500    0.0000 N   0  0  0  0  0  0  0  0  0  0  0  0
    6.6500   -3.2375    0.0000 N   0  0  0  0  0  0  0  0  0  0  0  0
   -1.3125   -2.1792    0.0000 Br  0  0  0  0  0  0  0  0  0  0  0  0
    6.6792   -4.6167    0.0000 Br  0  0  0  0  0  0  0  0  0  0  0  0
    5.9375   -3.6500    0.0000 C   0  0  0  0  0  0  0  0  0  0  0  0
   -0.4750   -3.2375    0.0000 C   0  0  0  0  0  0  0  0  0  0  0  0
    6.0625   -2.6500    0.0000 C   0  0  0  0  0  0  0  0  0  0  0  0
    7.2292   -3.8167    0.0000 C   0  0  0  0  0  0  0  0  0  0  0  0
   -1.7833   -3.0625    0.0000 C   0  0  0  0  0  0  0  0  0  0  0  0
   -1.9083   -4.0542    0.0000 C   0  0  0  0  0  0  0  0  0  0  0  0
   -0.6083   -4.2292    0.0000 C   0  0  0  0  0  0  0  0  0  0  0  0
    7.3625   -2.8167    0.0000 C   0  0  0  0  0  0  0  0  0  0  0  0
    0.2375   -3.6500    0.0000 C   0  0  0  0  0  0  0  0  0  0  0  0
    5.2250   -3.2375    0.0000 C   0  0  0  0  0  0  0  0  0  0  0  0
    1.6625   -3.6500    0.0000 C   0  0  0  0  0  0  0  0  0  0  0  0
    2.3750   -3.2375    0.0000 C   0  0  0  0  0  0  0  0  0  0  0  0
    3.0875   -3.6500    0.0000 C   0  0  0  0  0  0  0  0  0  0  0  0
    3.8000   -3.2375    0.0000 C   0  0  0  0  0  0  0  0  0  0  0  0
    4.5125   -3.6500    0.0000 C   0  0  0  0  0  0  0  0  0  0  0  0
    0.9500   -3.2375    0.0000 C   0  0  0  0  0  0  0  0  0  0  0  0
  2  5  1  0
  5 14  1  0
  6  1  1  0
  7  2  1  0
  8  2  1  0
  9  1  1  0
 10  1  1  0
 11  1  1  0
 12  2  1  0
 13  6  1  0
 14 19  1  0
 15 20  1  0
 16 15  1  0
 17 16  1  0
 18 17  1  0
 19 18  1  0
 20 13  1  0
M  CHG  4   1   1   2   1   3  -1   4  -1
M  END
>  <ID>  (985) 


>  <MOLENAME>  (985) 
DECAMETHONIUM BROMIDE

>  <therap>  (985) 
neuromuscular blocker

>  <ref>  (985) 
J. Pharmacol. Exp. Ther. (1950), 99, 215-25; J. Pharmacol. Exp. Ther. (1949), 97, 150-6; Nature (1948), 161, 718

>  <cas#>  (985) 
541-22-0

>  <source>  (985) 
synthetic

>  <status>  (985) 
USP-XX, INN, BAN

>  <tradename>  (985) 
SYNCURINE

>  <SMILES>  (985) 
C[N+](C)(C)CCCCCCCCCC[N+](C)(C)C

>  <standardized_failed>  (985) 
False

$$$$

     RDKit          2D

 22 24  0  0  0  0  0  0  0  0999 V2000
    4.7667   -2.8875    0.0000 C   0  0  0  0  0  0  0  0  0  0  0  0
    5.2625   -3.5542    0.0000 C   0  0  0  0  0  0  0  0  0  0  0  0
    5.0167   -2.1042    0.0000 C   0  0  0  0  0  0  0  0  0  0  0  0
    4.7792   -4.2250    0.0000 O   0  0  0  0  0  0  0  0  0  0  0  0
    5.8250   -1.9250    0.0000 C   0  0  0  0  0  0  0  0  0  0  0  0
    3.9875   -3.1500    0.0000 C   0  0  0  0  0  0  0  0  0  0  0  0
    7.4375   -1.5750    0.0000 C   0  0  0  0  0  0  0  0  0  0  0  0
    3.9917   -3.9750    0.0000 C   0  0  0  0  0  0  0  0  0  0  0  0
    7.1792   -2.3625    0.0000 C   0  0  0  0  0  0  0  0  0  0  0  0
    6.8750   -0.9625    0.0000 C   0  0  0  0  0  0  0  0  0  0  0  0
    6.3792   -2.5375    0.0000 C   0  0  0  0  0  0  0  0  0  0  0  0
    6.0667   -1.1417    0.0000 C   0  0  0  0  0  0  0  0  0  0  0  0
    4.4667   -1.4917    0.0000 O   0  0  0  0  0  0  0  0  0  0  0  0
    7.1167   -0.1750    0.0000 Br  0  0  0  0  0  0  0  0  0  0  0  0
    7.7417   -2.9667    0.0000 Br  0  0  0  0  0  0  0  0  0  0  0  0
    8.2417   -1.3917    0.0000 O   0  0  0  0  0  0  0  0  0  0  0  0
    6.0875   -3.5500    0.0000 C   0  0  0  0  0  0  0  0  0  0  0  0
    3.2667   -2.7375    0.0000 C   0  0  0  0  0  0  0  0  0  0  0  0
    3.2667   -4.3917    0.0000 C   0  0  0  0  0  0  0  0  0  0  0  0
    6.5042   -4.2542    0.0000 C   0  0  0  0  0  0  0  0  0  0  0  0
    2.5542   -3.1500    0.0000 C   0  0  0  0  0  0  0  0  0  0  0  0
    2.5542   -3.9792    0.0000 C   0  0  0  0  0  0  0  0  0  0  0  0
  2  1  2  0
  3  1  1  0
  4  2  1  0
  5  3  1  0
  6  1  1  0
  7 10  2  0
  8  6  2  0
  9 11  2  0
 10 12  1  0
 11  5  1  0
 12  5  2  0
 13  3  2  0
 14 10  1  0
 15  9  1  0
 16  7  1  0
 17  2  1  0
 18  6  1  0
 19  8  1  0
 20 17  1  0
 21 18  2  0
 22 21  1  0
  4  8  1  0
 19 22  2  0
  7  9  1  0
M  END
>  <ID>  (986) 


>  <MOLENAME>  (986) 
BENZBROMARONE

>  <therap>  (986) 
uricosuric

>  <ref>  (986) 
J Rheumatol 2:437 (1975); 3:305 (1976); Eur J Clin Pharmacol 19:431 (1981)

>  <cas#>  (986) 
3562-84-3

>  <source>  (986) 
synthetic; MJ-10061, L-2214

>  <status>  (986) 
USAN, INN, BAN

>  <tradename>  (986) 
DESURIC

>  <SMILES>  (986) 
CCc1c(C(=O)c2cc(Br)c(O)c(Br)c2)c2c(cccc2)o1

>  <standardized_failed>  (986) 
False

$$$$

     RDKit          2D

 26 28  0  0  0  0  0  0  0  0999 V2000
    0.7667   -1.2917    0.0000 C   0  0  0  0  0  0  0  0  0  0  0  0
    2.1917   -2.1125    0.0000 N   0  0  0  0  0  0  0  0  0  0  0  0
    1.4792   -0.8792    0.0000 C   0  0  0  0  0  0  0  0  0  0  0  0
    0.7667   -2.1167    0.0000 C   0  0  0  0  0  0  0  0  0  0  0  0
    0.0625   -0.8792    0.0000 C   0  0  0  0  0  0  0  0  0  0  0  0
    5.0500   -2.1042    0.0000 C   0  0  0  0  0  0  0  0  0  0  0  0
    5.7625   -2.5125    0.0000 C   0  0  0  0  0  0  0  0  0  0  0  0
    5.0417   -1.2792    0.0000 O   0  0  0  0  0  0  0  0  0  0  0  0
    1.4875   -2.5250    0.0000 C   0  0  0  0  0  0  0  0  0  0  0  0
    2.1917   -1.2917    0.0000 C   0  0  0  0  0  0  0  0  0  0  0  0
    0.0625   -0.0542    0.0000 C   0  0  0  0  0  0  0  0  0  0  0  0
   -0.6500   -1.2917    0.0000 C   0  0  0  0  0  0  0  0  0  0  0  0
    5.7542   -3.3292    0.0000 C   0  0  0  0  0  0  0  0  0  0  0  0
    6.4667   -2.1000    0.0000 C   0  0  0  0  0  0  0  0  0  0  0  0
    0.7667   -0.4667    0.0000 O   0  0  0  0  0  0  0  0  0  0  0  0
    7.1792   -3.3292    0.0000 C   0  0  0  0  0  0  0  0  0  0  0  0
   -1.3708   -0.0542    0.0000 C   0  0  0  0  0  0  0  0  0  0  0  0
    6.4667   -3.7417    0.0000 C   0  0  0  0  0  0  0  0  0  0  0  0
   -1.3625   -0.8792    0.0000 C   0  0  0  0  0  0  0  0  0  0  0  0
    7.1792   -2.5042    0.0000 C   0  0  0  0  0  0  0  0  0  0  0  0
   -0.6500    0.3583    0.0000 C   0  0  0  0  0  0  0  0  0  0  0  0
    7.9000   -3.7375    0.0000 F   0  0  0  0  0  0  0  0  0  0  0  0
   -2.0833    0.3583    0.0000 Br  0  0  0  0  0  0  0  0  0  0  0  0
    2.9125   -2.5167    0.0000 C   0  0  0  0  0  0  0  0  0  0  0  0
    3.6250   -2.1042    0.0000 C   0  0  0  0  0  0  0  0  0  0  0  0
    4.3375   -2.5167    0.0000 C   0  0  0  0  0  0  0  0  0  0  0  0
  2  9  1  0
  3  1  1  0
  4  1  1  0
  5  1  1  0
  6 26  1  0
  7  6  1  0
  8  6  2  0
  9  4  1  0
 10  3  1  0
 11  5  2  0
 12  5  1  0
 13  7  2  0
 14  7  1  0
 15  1  1  0
 16 20  1  0
 17 19  1  0
 18 13  1  0
 19 12  2  0
 20 14  2  0
 21 11  1  0
 22 16  1  0
 23 17  1  0
 24  2  1  0
 25 24  1  0
 26 25  1  0
 10  2  1  0
 17 21  2  0
 16 18  2  0
M  END
>  <ID>  (987) 


>  <MOLENAME>  (987) 
BROMPERIDOL

>  <therap>  (987) 
antipsychotic

>  <ref>  (987) 
Int Pharmopsychiatry 14:213 (1979); Life Sci 24:2201 (1979)

>  <cas#>  (987) 
10457-90-6

>  <source>  (987) 
synthetic; R-11333

>  <status>  (987) 
USAN, INN, BAN, JAN

>  <tradename>  (987) 
IMPROMEN

>  <SMILES>  (987) 
O=C(CCCN1CCC(O)(c2ccc(Br)cc2)CC1)c1ccc(F)cc1

>  <standardized_failed>  (987) 
False

$$$$

     RDKit          2D

 62 68  0  0  0  0  0  0  0  0999 V2000
    8.7167   -7.8292    0.0000 C   0  0  0  0  0  0  0  0  0  0  0  0
    7.9000   -7.9667    0.0000 C   0  0  0  0  0  0  0  0  0  0  0  0
    7.6042   -8.7292    0.0000 C   0  0  0  0  0  0  0  0  0  0  0  0
    9.1625   -7.1292    0.0000 C   0  0  0  0  0  0  0  0  0  0  0  0
    9.2417   -8.4667    0.0000 C   0  0  0  0  0  0  0  0  0  0  0  0
   10.1292   -4.1417    0.0000 C   0  0  0  0  0  0  0  0  0  0  0  0
    8.9417   -9.2292    0.0000 C   0  0  0  0  0  0  0  0  0  0  0  0
    6.7917   -8.6917    0.0000 O   0  0  0  0  0  0  0  0  0  0  0  0
    7.2542   -7.4542    0.0000 C   0  0  0  0  0  0  0  0  0  0  0  0
    2.9542   -4.9542    0.0000 C   0  0  0  0  0  0  0  0  0  0  0  0
    8.1292   -9.3667    0.0000 C   0  0  0  0  0  0  0  0  0  0  0  0
   10.8417   -4.5542    0.0000 O   0  0  0  0  0  0  0  0  0  0  0  0
    1.5125   -4.9542    0.0000 C   0  0  0  0  0  0  0  0  0  0  0  0
    4.3917   -4.1292    0.0000 C   0  0  0  0  0  0  0  0  0  0  0  0
    9.4167   -6.2042    0.0000 O   0  0  0  0  0  0  0  0  0  0  0  0
    4.3875   -4.9542    0.0000 O   0  0  0  0  0  0  0  0  0  0  0  0
    0.8000   -5.3667    0.0000 O   0  0  0  0  0  0  0  0  0  0  0  0
    3.6792   -3.7167    0.0000 C   0  0  0  0  0  0  0  0  0  0  0  0
    1.5125   -4.3292    0.0000 C   0  0  0  0  0  0  0  0  0  0  0  0
    2.9625   -4.1292    0.0000 C   0  0  0  0  0  0  0  0  0  0  0  0
    0.0792   -4.3292    0.0000 C   0  0  0  0  0  0  0  0  0  0  0  0
    5.8292   -4.1417    0.0000 C   0  0  0  0  0  0  0  0  0  0  0  0
    3.6750   -5.3667    0.0000 C   0  0  0  0  0  0  0  0  0  0  0  0
   10.1292   -4.9667    0.0000 C   0  0  0  0  0  0  0  0  0  0  0  0
    9.4167   -3.7292    0.0000 O   0  0  0  0  0  0  0  0  0  0  0  0
    0.8000   -3.9167    0.0000 C   0  0  0  0  0  0  0  0  0  0  0  0
   11.5542   -4.1417    0.0000 C   0  0  0  0  0  0  0  0  0  0  0  0
    9.4167   -5.3792    0.0000 C   0  0  0  0  0  0  0  0  0  0  0  0
    0.0792   -4.9542    0.0000 C   0  0  0  0  0  0  0  0  0  0  0  0
    6.5500   -3.7292    0.0000 C   0  0  0  0  0  0  0  0  0  0  0  0
    2.2292   -5.3667    0.0000 O   0  0  0  0  0  0  0  0  0  0  0  0
    5.1125   -3.7167    0.0000 O   0  0  0  0  0  0  0  0  0  0  0  0
    7.2667   -4.1417    0.0000 C   0  0  0  0  0  0  0  0  0  0  0  0
    6.5750   -7.9042    0.0000 C   0  0  0  0  0  0  0  0  0  0  0  0
    7.2542   -6.6167    0.0000 C   0  0  0  0  0  0  0  0  0  0  0  0
    9.6875   -7.7792    0.0000 O   0  0  0  0  0  0  0  0  0  0  0  0
    6.5417   -6.2167    0.0000 C   0  0  0  0  0  0  0  0  0  0  0  0
    8.7000   -4.9667    0.0000 C   0  0  0  0  0  0  0  0  0  0  0  0
    8.7000   -4.1417    0.0000 C   0  0  0  0  0  0  0  0  0  0  0  0
    5.8292   -4.9667    0.0000 C   0  0  0  0  0  0  0  0  0  0  0  0
   11.5542   -3.3042    0.0000 C   0  0  0  0  0  0  0  0  0  0  0  0
    6.5417   -5.3792    0.0000 C   0  0  0  0  0  0  0  0  0  0  0  0
    7.9042   -7.1417    0.0000 O   0  0  0  0  0  0  0  0  0  0  0  0
   10.1292   -3.3042    0.0000 C   0  0  0  0  0  0  0  0  0  0  0  0
   10.8417   -2.8917    0.0000 C   0  0  0  0  0  0  0  0  0  0  0  0
    7.9792   -3.7292    0.0000 C   0  0  0  0  0  0  0  0  0  0  0  0
   12.2792   -4.5542    0.0000 C   0  0  0  0  0  0  0  0  0  0  0  0
    7.8417  -10.1542    0.0000 O   0  0  0  0  0  0  0  0  0  0  0  0
   -0.7125   -4.1042    0.0000 O   0  0  0  0  0  0  0  0  0  0  0  0
    2.2417   -3.7167    0.0000 O   0  0  0  0  0  0  0  0  0  0  0  0
    0.8000   -3.0917    0.0000 O   0  0  0  0  0  0  0  0  0  0  0  0
    9.4667   -9.8792    0.0000 C   0  0  0  0  0  0  0  0  0  0  0  0
    6.5500   -2.9042    0.0000 C   0  0  0  0  0  0  0  0  0  0  0  0
    3.6750   -6.1917    0.0000 C   0  0  0  0  0  0  0  0  0  0  0  0
   -0.7125   -5.1917    0.0000 C   0  0  0  0  0  0  0  0  0  0  0  0
    5.1125   -5.3917    0.0000 C   0  0  0  0  0  0  0  0  0  0  0  0
   12.2792   -2.8917    0.0000 C   0  0  0  0  0  0  0  0  0  0  0  0
   12.2750   -5.3917    0.0000 C   0  0  0  0  0  0  0  0  0  0  0  0
   12.9917   -4.1417    0.0000 C   0  0  0  0  0  0  0  0  0  0  0  0
   -0.0250   -2.6292    0.0000 C   0  0  0  0  0  0  0  0  0  0  0  0
    2.2542   -2.7917    0.0000 C   0  0  0  0  0  0  0  0  0  0  0  0
   11.5625   -5.8042    0.0000 C   0  0  0  0  0  0  0  0  0  0  0  0
  2  1  1  0
  3  2  1  0
  1  4  1  0
  1  5  1  6
  6 24  1  1
  7  5  2  0
  3  8  1  1
  9  2  1  0
 10 20  1  0
 11  7  1  0
  6 12  1  0
 13 31  1  6
 32 14  1  0
 15  4  1  0
 16 14  1  0
 17 13  1  0
 18 14  1  0
 19 13  1  0
 20 18  1  0
 21 26  1  0
 22 40  1  0
 23 16  1  0
 28 24  1  1
 25 39  1  0
 26 19  1  0
 27 12  1  0
 28 15  1  0
 29 17  1  0
 30 33  2  0
 31 10  1  0
 22 32  1  6
 33 46  1  0
 34  9  1  0
 35  9  2  0
 36  4  2  0
 37 35  1  0
 38 28  1  0
 39 38  1  0
 40 42  1  0
 41 45  1  0
 42 37  2  0
  2 43  1  6
  6 44  1  0
 45 44  1  0
 39 46  1  1
 27 47  1  1
 11 48  1  1
 21 49  1  6
 20 50  1  1
 26 51  1  1
 52  7  1  0
 53 30  1  0
 23 54  1  1
 29 55  1  1
 40 56  1  6
 41 57  1  6
 58 47  1  0
 59 47  1  0
 60 51  1  0
 61 50  1  0
 62 58  1  0
  3 11  1  0
  8 34  1  0
 25  6  1  0
 30 22  1  0
 41 27  1  0
 10 23  1  0
 21 29  1  0
M  END
>  <ID>  (988) 


>  <MOLENAME>  (988) 
IVERMECTIN

>  <therap>  (988) 
antiparasitic

>  <ref>  (988) 
Science 221:823 (1983); J Vet Pharmacol Ther 7:1 (1984)

>  <cas#>  (988) 
70288-86-7

>  <source>  (988) 
semisynthetic

>  <status>  (988) 
USP, INN, BAN

>  <tradename>  (988) 
STROMECTOL

>  <SMILES>  (988) 
CCC(C)[C@H]1O[C@]2(CC[C@@H]1C)C[C@@H]1C[C@@H](C/C=C(\C)[C@@H](OC3C[C@H](OC)C(O[C@H]4C[C@H](OC)[C@@H](O)[C@H](C)O4)[C@H](C)O3)[C@@H](C)/C=C/C=C3\CO[C@@H]4[C@H](O)C(C)=C[C@@H](C(=O)O1)[C@]34O)O2

>  <standardized_failed>  (988) 
False

$$$$

     RDKit          2D

 23 25  0  0  0  0  0  0  0  0999 V2000
    3.3333   -0.0208    0.0000 S   0  0  0  0  0  0  0  0  0  0  0  0
    2.6208   -0.4375    0.0000 C   0  0  0  0  0  0  0  0  0  0  0  0
    2.6208   -1.2625    0.0000 C   0  0  0  0  0  0  0  0  0  0  0  0
    4.0500   -1.2625    0.0000 C   0  0  0  0  0  0  0  0  0  0  0  0
    4.0500   -0.4333    0.0000 N   0  0  0  0  0  0  0  0  0  0  0  0
    3.3333   -1.6750    0.0000 C   0  0  0  0  0  0  0  0  0  0  0  0
    4.7667   -1.6750    0.0000 C   0  0  0  0  0  0  0  0  0  0  0  0
    1.8375   -0.1833    0.0000 C   0  0  0  0  0  0  0  0  0  0  0  0
    1.8375   -1.5167    0.0000 S   0  0  0  0  0  0  0  0  0  0  0  0
    1.3542   -0.8500    0.0000 C   0  0  0  0  0  0  0  0  0  0  0  0
    5.4792   -1.2583    0.0000 N   0  0  0  0  0  0  0  0  0  0  0  0
    2.7417    0.5708    0.0000 O   0  0  0  0  0  0  0  0  0  0  0  0
    3.9167    0.5708    0.0000 O   0  0  0  0  0  0  0  0  0  0  0  0
    6.1958   -1.6708    0.0000 C   0  0  0  0  0  0  0  0  0  0  0  0
    4.7667   -2.5000    0.0000 O   0  0  0  0  0  0  0  0  0  0  0  0
    6.9042   -1.2542    0.0000 N   0  0  0  0  0  0  0  0  0  0  0  0
    3.3333   -2.5000    0.0000 O   0  0  0  0  0  0  0  0  0  0  0  0
    4.7625   -0.0167    0.0000 C   0  0  0  0  0  0  0  0  0  0  0  0
    0.5292   -0.8458    0.0000 Cl  0  0  0  0  0  0  0  0  0  0  0  0
    7.6167   -1.6625    0.0000 C   0  0  0  0  0  0  0  0  0  0  0  0
    6.1917   -2.4958    0.0000 C   0  0  0  0  0  0  0  0  0  0  0  0
    7.6208   -2.4917    0.0000 C   0  0  0  0  0  0  0  0  0  0  0  0
    6.9083   -2.9042    0.0000 C   0  0  0  0  0  0  0  0  0  0  0  0
  2  1  1  0
  3  2  2  0
  4  5  1  0
  5  1  1  0
  6  3  1  0
  7  4  1  0
  8  2  1  0
  9  3  1  0
 10  8  2  0
 11  7  1  0
 12  1  2  0
 13  1  2  0
 14 11  1  0
 15  7  2  0
 16 14  2  0
 17  6  1  0
 18  5  1  0
 19 10  1  0
 20 16  1  0
 21 14  1  0
 22 20  2  0
 23 21  2  0
  4  6  2  0
  9 10  1  0
 22 23  1  0
M  END
>  <ID>  (989) 


>  <MOLENAME>  (989) 
LORNOXICAM

>  <therap>  (989) 
analgesic, antiinflammatory

>  <ref>  (989) 
Postgrad Med J 64:752 (1988)

>  <cas#>  (989) 
70374-39-9

>  <source>  (989) 
synthetic; RO-13-9297

>  <status>  (989) 
USAN, INN, BAN

>  <tradename>  (989) 
XEFO

>  <SMILES>  (989) 
CN1C(C(=O)Nc2ncccc2)=C(O)c2c(cc(Cl)s2)S1(=O)=O

>  <standardized_failed>  (989) 
False

$$$$

     RDKit          2D

 46 45  0  0  0  0  0  0  0  0999 V2000
    3.5500   -2.3333    0.0000 C   0  0  0  0  0  0  0  0  0  0  0  0
    8.6917   -2.3500    0.0000 C   0  0  0  0  0  0  0  0  0  0  0  0
    0.6917   -0.6875    0.0000 P   0  0  0  0  0  0  0  0  0  0  0  0
   11.5500   -0.7042    0.0000 P   0  0  0  0  0  0  0  0  0  0  0  0
    3.5500   -3.1625    0.0000 C   0  0  0  0  0  0  0  0  0  0  0  0
    8.6917   -3.1792    0.0000 C   0  0  0  0  0  0  0  0  0  0  0  0
    6.0000   -3.5917    0.0000 Mn  0  0  0  0  0  2  0  0  0  0  0  0
    2.1208   -3.1625    0.0000 N   0  0  0  0  0  0  0  0  0  0  0  0
   10.1208   -3.1792    0.0000 N   0  0  0  0  0  0  0  0  0  0  0  0
    2.8333   -3.5750    0.0000 C   0  0  0  0  0  0  0  0  0  0  0  0
    9.4083   -3.5917    0.0000 C   0  0  0  0  0  0  0  0  0  0  0  0
    7.2625   -2.3417    0.0000 N   0  0  0  0  0  0  0  0  0  0  0  0
    4.9792   -2.3250    0.0000 N   0  0  0  0  0  0  0  0  0  0  0  0
    7.9750   -3.5917    0.0000 O   0  0  0  0  0  0  0  0  0  0  0  0
    4.2667   -3.5750    0.0000 O   0  0  0  0  0  0  0  0  0  0  0  0
    7.9792   -1.9333    0.0000 C   0  0  0  0  0  0  0  0  0  0  0  0
    4.2625   -1.9167    0.0000 C   0  0  0  0  0  0  0  0  0  0  0  0
   10.1208   -2.3500    0.0000 C   0  0  0  0  0  0  0  0  0  0  0  0
    2.1208   -2.3375    0.0000 C   0  0  0  0  0  0  0  0  0  0  0  0
    7.5333   -1.0333    0.0000 C   0  0  0  0  0  0  0  0  0  0  0  0
    2.8333   -1.9208    0.0000 C   0  0  0  0  0  0  0  0  0  0  0  0
    9.4083   -1.9375    0.0000 C   0  0  0  0  0  0  0  0  0  0  0  0
   11.5500    0.1208    0.0000 O   0  0  0  0  0  0  0  0  0  0  0  0
    0.6917    0.1375    0.0000 O   0  0  0  0  0  0  0  0  0  0  0  0
    5.2125   -1.0292    0.0000 C   0  0  0  0  0  0  0  0  0  0  0  0
    1.4083   -1.1000    0.0000 O   0  0  0  0  0  0  0  0  0  0  0  0
   10.8333   -1.1167    0.0000 O   0  0  0  0  0  0  0  0  0  0  0  0
   -0.0250   -0.2750    0.0000 O   0  0  0  0  0  0  0  0  0  0  0  0
   12.2667   -0.2917    0.0000 O   0  0  0  0  0  0  0  0  0  0  0  0
    7.0292   -1.6292    0.0000 C   0  0  0  0  0  0  0  0  0  0  0  0
    4.4667   -1.5292    0.0000 C   0  0  0  0  0  0  0  0  0  0  0  0
    7.2500   -0.1292    0.0000 O   0  0  0  0  0  0  0  0  0  0  0  0
   10.8333   -1.9417    0.0000 C   0  0  0  0  0  0  0  0  0  0  0  0
    1.4083   -1.9250    0.0000 C   0  0  0  0  0  0  0  0  0  0  0  0
    8.5625   -1.0042    0.0000 O   0  0  0  0  0  0  0  0  0  0  0  0
    5.2125   -0.2167    0.0000 O   0  0  0  0  0  0  0  0  0  0  0  0
   -0.0208   -1.1000    0.0000 O   0  0  0  0  0  0  0  0  0  0  0  0
   12.2625   -1.1167    0.0000 O   0  0  0  0  0  0  0  0  0  0  0  0
    5.5833   -2.8000    0.0000 C   0  0  0  0  0  0  0  0  0  0  0  0
    6.4583   -2.8000    0.0000 C   0  0  0  0  0  0  0  0  0  0  0  0
    6.0583   -1.5583    0.0000 O   0  0  0  0  0  0  0  0  0  0  0  0
    1.8417    1.0000    0.0000 Na  0  0  0  0  0 15  0  0  0  0  0  0
    7.0250    1.0000    0.0000 Na  0  0  0  0  0 15  0  0  0  0  0  0
   11.4917    1.1583    0.0000 Na  0  0  0  0  0 15  0  0  0  0  0  0
    2.8333   -4.4000    0.0000 C   0  0  0  0  0  0  0  0  0  0  0  0
    9.4083   -4.4167    0.0000 C   0  0  0  0  0  0  0  0  0  0  0  0
  2  6  2  0
  3 26  1  0
  4 27  1  0
  5  1  2  0
  6 14  1  0
  7 15  1  0
  8 10  2  0
  9 11  2  0
 10  5  1  0
 11  6  1  0
 12 40  1  0
 13 17  1  0
 14  7  1  0
 15  5  1  0
 16 12  1  0
 17  1  1  0
 18  9  1  0
 19 21  2  0
 20 30  1  0
 21  1  1  0
 22  2  1  0
 23  4  1  0
 24  3  1  0
 25 31  1  0
 26 34  1  0
 27 33  1  0
 28  3  2  0
 29  4  2  0
 30 12  1  0
 31 13  1  0
 32 20  1  0
 33 18  1  0
 34 19  1  0
 35 20  2  0
 36 25  2  0
 37  3  1  0
 38  4  1  0
 39 13  1  0
 40 39  1  0
 41 25  1  0
 45 10  1  0
 46 11  1  0
  8 19  1  0
 16  2  1  0
 18 22  2  0
M  CHG  6  23  -1  24  -1  32  -1  42   1  43   1  44   1
M  END
>  <ID>  (990) 


>  <MOLENAME>  (990) 
MANGAFODIPIR TRISODIUM

>  <therap>  (990) 
paramagnetic agent

>  <ref>  (990) 
Radiology 78:73 (1991); Acta Radiol 38:626 (1997)

>  <cas#>  (990) 
140678-14-4

>  <source>  (990) 
synthetic; WIN-59010

>  <status>  (990) 
USP

>  <tradename>  (990) 
TESLASCAN

>  <SMILES>  (990) 
Cc1nc(COP(=O)([O-])O)cc2c1O[Mn]Oc1c(cc(COP(=O)([O-])O)nc1C)CN(CC(=O)O)CCN(CC(=O)[O-])C2.[Na+].[Na+].[Na+]

>  <standardized_failed>  (990) 
True

$$$$

     RDKit          2D

 22 22  0  0  0  0  0  0  0  0999 V2000
    3.6000   -1.9542    0.0000 C   0  0  0  0  0  0  0  0  0  0  0  0
    4.3125   -1.5417    0.0000 C   0  0  0  0  0  0  0  0  0  0  0  0
    3.6000   -2.7792    0.0000 C   0  0  0  0  0  0  0  0  0  0  0  0
    2.8875   -1.5417    0.0000 C   0  0  0  0  0  0  0  0  0  0  0  0
    5.0250   -1.9542    0.0000 C   0  0  0  0  0  0  0  0  0  0  0  0
    9.3000   -1.9292    0.0000 C   0  0  0  0  0  0  0  0  0  0  0  0
   10.0083   -1.5083    0.0000 C   0  0  0  0  0  0  0  0  0  0  0  0
    7.1625   -1.5292    0.0000 C   0  0  0  0  0  0  0  0  0  0  0  0
    8.5875   -1.5292    0.0000 C   0  0  0  0  0  0  0  0  0  0  0  0
    5.7375   -1.5417    0.0000 C   0  0  0  0  0  0  0  0  0  0  0  0
    7.8750   -1.9417    0.0000 C   0  0  0  0  0  0  0  0  0  0  0  0
    6.4500   -1.9417    0.0000 C   0  0  0  0  0  0  0  0  0  0  0  0
    9.9917   -0.6833    0.0000 O   0  0  0  0  0  0  0  0  0  0  0  0
   10.8667   -1.8708    0.0000 O   0  0  0  0  0  0  0  0  0  0  0  0
    2.8875   -3.1917    0.0000 C   0  0  0  0  0  0  0  0  0  0  0  0
    2.1792   -1.9542    0.0000 C   0  0  0  0  0  0  0  0  0  0  0  0
    4.3167   -3.1917    0.0000 C   0  0  0  0  0  0  0  0  0  0  0  0
    3.6000   -1.1167    0.0000 C   0  0  0  0  0  0  0  0  0  0  0  0
    2.1667   -1.1292    0.0000 C   0  0  0  0  0  0  0  0  0  0  0  0
    2.1792   -2.7792    0.0000 C   0  0  0  0  0  0  0  0  0  0  0  0
    8.5792   -0.7042    0.0000 C   0  0  0  0  0  0  0  0  0  0  0  0
    5.7292   -0.7167    0.0000 C   0  0  0  0  0  0  0  0  0  0  0  0
  2  1  1  0
  3  1  2  0
  4  1  1  0
  5  2  2  0
  6  9  2  0
  7  6  1  0
  8 12  1  0
  9 11  1  0
 10  5  1  0
 11  8  2  0
 12 10  2  0
 13  7  2  0
 14  7  1  0
 15  3  1  0
 16  4  1  0
 17  3  1  0
 18  4  1  0
 19  4  1  0
 20 16  1  0
 21  9  1  0
 22 10  1  0
 15 20  1  0
M  END
>  <ID>  (991) 


>  <MOLENAME>  (991) 
TRETINOIN

>  <therap>  (991) 
keratolytic, antiacne, antineoplastic

>  <ref>  (991) 
J Am Acad Dermatol 6:652 (19982); Crit Rev Clin Lab Sci 29:185 (1992)

>  <cas#>  (991) 
302-79-4

>  <source>  (991) 
semisynthetic; UNII-5688UTCO1R

>  <status>  (991) 
USP, INN, BAN

>  <tradename>  (991) 
AVITA

>  <SMILES>  (991) 
CC1=C(/C=C/C(C)=C/C=C/C(C)=C/C(=O)O)C(C)(C)CCC1

>  <standardized_failed>  (991) 
False

$$$$

     RDKit          2D

 15 16  0  0  0  0  0  0  0  0999 V2000
    6.6417   -5.8542    0.0000 S   0  0  0  0  0  0  0  0  0  0  0  0
    5.8500   -4.7750    0.0000 N   0  0  0  0  0  0  0  0  0  0  0  0
    7.1250   -5.1833    0.0000 C   0  0  0  0  0  0  0  0  0  0  0  0
    5.8583   -5.6000    0.0000 C   0  0  0  0  0  0  0  0  0  0  0  0
    6.6333   -4.5167    0.0000 C   0  0  0  0  0  0  0  0  0  0  0  0
    5.0250   -4.7750    0.0000 C   0  0  0  0  0  0  0  0  0  0  0  0
    5.0250   -5.6000    0.0000 C   0  0  0  0  0  0  0  0  0  0  0  0
    6.8875   -3.7333    0.0000 C   0  0  0  0  0  0  0  0  0  0  0  0
    6.9000   -6.6375    0.0000 O   0  0  0  0  0  0  0  0  0  0  0  0
    5.9250   -6.2625    0.0000 O   0  0  0  0  0  0  0  0  0  0  0  0
    4.4417   -4.1917    0.0000 O   0  0  0  0  0  0  0  0  0  0  0  0
    6.3292   -3.1208    0.0000 O   0  0  0  0  0  0  0  0  0  0  0  0
    7.8375   -5.5917    0.0000 C   0  0  0  0  0  0  0  0  0  0  0  0
    7.8375   -4.7667    0.0000 C   0  0  0  0  0  0  0  0  0  0  0  0
    7.6917   -3.5542    0.0000 O   0  0  0  0  0  0  0  0  0  0  0  0
  2  4  1  0
  3  1  1  0
  4  1  1  0
  5  3  1  0
  6  7  1  0
  4  7  1  6
  8  5  1  0
  9  1  2  0
 10  1  2  0
 11  6  2  0
 12  8  2  0
  3 13  1  0
 14  3  1  0
 15  8  1  0
  2  5  1  0
  6  2  1  0
M  END
>  <ID>  (992) 


>  <MOLENAME>  (992) 
SULBACTAM

>  <therap>  (992) 
b-lactamase inhibitor

>  <ref>  (992) 
J Antimicrob Chemother 17:389 (1986); Drugs 33:577 (1987)

>  <cas#>  (992) 
68373-14-8

>  <source>  (992) 
semisynthetic; CP-45899

>  <status>  (992) 
USP, JAN

>  <tradename>  (992) 
BETAMAZE

>  <SMILES>  (992) 
CC1(C)C(C(=O)O)N2C(=O)C[C@H]2S1(=O)=O

>  <standardized_failed>  (992) 
False

$$$$

     RDKit          2D

  7  5  0  0  0  0  0  0  0  0999 V2000
    4.8542   -2.6167    0.0000 C   0  0  0  0  0  0  0  0  0  0  0  0
    5.5667   -2.2042    0.0000 O   0  0  0  0  0  0  0  0  0  0  0  0
    4.8542   -3.4417    0.0000 O   0  0  0  0  0  0  0  0  0  0  0  0
    7.2125   -1.7792    0.0000 N   0  0  0  0  0  0  0  0  0  0  0  0
    4.1417   -2.2042    0.0000 C   0  0  0  0  0  0  0  0  0  0  0  0
    4.1417   -1.3792    0.0000 O   0  0  0  0  0  0  0  0  0  0  0  0
    3.4292   -2.6167    0.0000 C   0  0  0  0  0  0  0  0  0  0  0  0
  2  1  1  0
  3  1  2  0
  5  1  1  0
  6  5  1  0
  7  5  1  0
M  CHG  2   2  -1   4   1
M  END
>  <ID>  (993) 


>  <MOLENAME>  (993) 
AMMONIUM LACTATE

>  <therap>  (993) 
antipruritic

>  <ref>  (993) 
JACS 75:1242 (1953)

>  <cas#>  (993) 
52003-58-4

>  <source>  (993) 
synthetic; BMS-186091

>  <status>  (993) 
USAN

>  <tradename>  (993) 
nan

>  <SMILES>  (993) 
CC(O)C(=O)O.N

>  <standardized_failed>  (993) 
False

$$$$

     RDKit          2D

 26 27  0  0  0  0  0  0  0  0999 V2000
    5.8167   -4.1292    0.0000 C   0  0  0  0  0  0  0  0  0  0  0  0
    5.8125   -4.9625    0.0000 C   0  0  0  0  0  0  0  0  0  0  0  0
    6.5292   -5.3792    0.0000 C   0  0  0  0  0  0  0  0  0  0  0  0
    7.2500   -4.1292    0.0000 N   0  0  0  0  0  0  0  0  0  0  0  0
    6.5292   -3.7250    0.0000 C   0  0  0  0  0  0  0  0  0  0  0  0
    7.2500   -4.9667    0.0000 C   0  0  0  0  0  0  0  0  0  0  0  0
    9.6625   -5.6125    0.0000 C   0  0  0  0  0  0  0  0  0  0  0  0
    9.6625   -4.2250    0.0000 C   0  0  0  0  0  0  0  0  0  0  0  0
    9.0667   -4.5750    0.0000 C   0  0  0  0  0  0  0  0  0  0  0  0
    9.0667   -5.2667    0.0000 C   0  0  0  0  0  0  0  0  0  0  0  0
    5.1000   -3.7250    0.0000 C   0  0  0  0  0  0  0  0  0  0  0  0
    6.5250   -6.2042    0.0000 C   0  0  0  0  0  0  0  0  0  0  0  0
   10.2625   -5.2667    0.0000 O   0  0  0  0  0  0  0  0  0  0  0  0
    9.6625   -3.5292    0.0000 O   0  0  0  0  0  0  0  0  0  0  0  0
    5.1000   -2.9000    0.0000 N   0  0  0  0  0  0  0  0  0  0  0  0
   10.2625   -4.5750    0.0000 O   0  0  0  0  0  0  0  0  0  0  0  0
    9.6625   -6.3042    0.0000 O   0  0  0  0  0  0  0  0  0  0  0  0
    5.1000   -5.3792    0.0000 C   0  0  0  0  0  0  0  0  0  0  0  0
    7.9625   -3.7292    0.0000 C   0  0  0  0  0  0  0  0  0  0  0  0
    4.3875   -4.9667    0.0000 C   0  0  0  0  0  0  0  0  0  0  0  0
    4.3875   -4.1417    0.0000 C   0  0  0  0  0  0  0  0  0  0  0  0
    5.8042   -6.6125    0.0000 C   0  0  0  0  0  0  0  0  0  0  0  0
    7.2375   -6.6125    0.0000 C   0  0  0  0  0  0  0  0  0  0  0  0
    7.2375   -7.4375    0.0000 C   0  0  0  0  0  0  0  0  0  0  0  0
    5.8042   -7.4375    0.0000 C   0  0  0  0  0  0  0  0  0  0  0  0
    6.5167   -7.8500    0.0000 C   0  0  0  0  0  0  0  0  0  0  0  0
  2  1  2  0
  3  2  1  0
  4  5  1  0
  5  1  1  0
  6  4  1  0
  8  9  1  0
  9 10  2  0
 10  7  1  0
 11  1  1  0
 12  3  1  0
 13  7  2  0
 14  8  2  0
 15 11  1  0
 16  8  1  0
 17  7  1  0
 18  2  1  0
 19  4  1  0
 20 21  1  0
 21 11  2  0
 22 12  2  0
 23 12  1  0
 24 23  2  0
 25 22  1  0
 26 24  1  0
 20 18  2  0
  3  6  1  0
 25 26  2  0
M  END
>  <ID>  (994) 


>  <MOLENAME>  (994) 
NOMIFENSINE MALEATE

>  <therap>  (994) 
antidepressant, dopamine uptake inhibitor

>  <ref>  (994) 
J Clin Psychiatry 45: 12 (1984); Int Pharmacopsychiatry 17: 21 (1982); hepatotoxic at clinical dose (125mg)

>  <cas#>  (994) 
32795-47-4, 24526-64-5 [nomifensine]

>  <source>  (994) 
synthetic; HOE-984

>  <status>  (994) 
USAN, INN, BAN

>  <tradename>  (994) 
MERITAL

>  <SMILES>  (994) 
CN1Cc2c(cccc2N)C(c2ccccc2)C1

>  <standardized_failed>  (994) 
False

$$$$

     RDKit          2D

 29 33  0  0  0  0  0  0  0  0999 V2000
    5.3042   -4.3917    0.0000 C   0  0  0  0  0  0  0  0  0  0  0  0
    5.3000   -5.2167    0.0000 C   0  0  0  0  0  0  0  0  0  0  0  0
    4.5917   -3.9792    0.0000 C   0  0  0  0  0  0  0  0  0  0  0  0
    3.8792   -4.3917    0.0000 C   0  0  0  0  0  0  0  0  0  0  0  0
    7.4542   -3.1750    0.0000 C   0  0  0  0  0  0  0  0  0  0  0  0
    6.0167   -3.9792    0.0000 C   0  0  0  0  0  0  0  0  0  0  0  0
    8.2375   -2.9292    0.0000 C   0  0  0  0  0  0  0  0  0  0  0  0
    6.7250   -4.4042    0.0000 C   0  0  0  0  0  0  0  0  0  0  0  0
    3.8750   -3.5667    0.0000 C   0  0  0  0  0  0  0  0  0  0  0  0
    6.0125   -5.6292    0.0000 C   0  0  0  0  0  0  0  0  0  0  0  0
    4.5917   -5.6292    0.0000 C   0  0  0  0  0  0  0  0  0  0  0  0
    6.7292   -5.2250    0.0000 C   0  0  0  0  0  0  0  0  0  0  0  0
    7.4417   -4.0000    0.0000 C   0  0  0  0  0  0  0  0  0  0  0  0
    3.8792   -5.2167    0.0000 C   0  0  0  0  0  0  0  0  0  0  0  0
    6.7417   -2.7542    0.0000 C   0  0  0  0  0  0  0  0  0  0  0  0
    8.7125   -3.6000    0.0000 C   0  0  0  0  0  0  0  0  0  0  0  0
    9.0625   -2.9292    0.0000 O   0  0  0  0  0  0  0  0  0  0  0  0
    6.0250   -3.1542    0.0000 C   0  0  0  0  0  0  0  0  0  0  0  0
    8.2250   -4.2542    0.0000 C   0  0  0  0  0  0  0  0  0  0  0  0
    8.4500   -2.1292    0.0000 C   0  0  0  0  0  0  0  0  0  0  0  0
    9.4750   -3.6375    0.0000 C   0  0  0  0  0  0  0  0  0  0  0  0
    3.1667   -5.6292    0.0000 O   0  0  0  0  0  0  0  0  0  0  0  0
    9.0667   -4.3542    0.0000 O   0  0  0  0  0  0  0  0  0  0  0  0
    7.8625   -1.5417    0.0000 O   0  0  0  0  0  0  0  0  0  0  0  0
    6.0042   -6.4542    0.0000 Cl  0  0  0  0  0  0  0  0  0  0  0  0
    5.3000   -3.5667    0.0000 C   0  0  0  0  0  0  0  0  0  0  0  0
    7.4500   -2.3500    0.0000 C   0  0  0  0  0  0  0  0  0  0  0  0
   10.3000   -3.6375    0.0000 C   0  0  0  0  0  0  0  0  0  0  0  0
    9.2417   -1.9042    0.0000 C   0  0  0  0  0  0  0  0  0  0  0  0
  2  1  1  0
  3  1  1  0
  4  3  1  0
  5 15  1  0
  6  1  1  0
  7  5  1  0
  8  6  1  0
  3  9  1  6
 10  2  1  0
 11  2  2  0
 12  8  1  0
 13  8  1  0
 14  4  1  0
 15 18  1  0
 16 19  1  0
  7 17  1  6
 18  6  1  0
 19 13  1  0
  7 20  1  0
 21 17  1  0
 22 14  2  0
 23 21  2  0
 24 20  2  0
 25 10  1  0
  1 26  1  1
  5 27  1  1
 28 21  1  0
 29 20  1  0
  4  9  1  6
  5 13  1  0
 10 12  2  0
 11 14  1  0
 16  7  1  0
M  END
>  <ID>  (995) 


>  <MOLENAME>  (995) 
CYPROTERONE ACETATE

>  <therap>  (995) 
antiandrogen

>  <ref>  (995) 
Arzneim Forsch 23:1550 (1973); J Steroid Biochem 19:591 (1983)

>  <cas#>  (995) 
427-51-0

>  <source>  (995) 
synthetic

>  <status>  (995) 
USP

>  <tradename>  (995) 
ANDROCUR

>  <SMILES>  (995) 
CC(=O)O[C@]1(C(C)=O)CCC2C3C=C(Cl)C4=CC(=O)[C@@H]5C[C@@H]5[C@]4(C)C3CC[C@@]21C

>  <standardized_failed>  (995) 
False

$$$$

     RDKit          2D

 58 61  0  0  0  0  0  0  0  0999 V2000
    4.2667    0.0333    0.0000 C   0  0  0  0  0  0  0  0  0  0  0  0
    8.8917   -3.3417    0.0000 C   0  0  0  0  0  0  0  0  0  0  0  0
    6.0667   -3.2042    0.0000 C   0  0  0  0  0  0  0  0  0  0  0  0
    3.5375   -0.5542    0.0000 C   0  0  0  0  0  0  0  0  0  0  0  0
    4.5750   -2.5292    0.0000 C   0  0  0  0  0  0  0  0  0  0  0  0
    5.3625   -2.7667    0.0000 C   0  0  0  0  0  0  0  0  0  0  0  0
    9.6125   -2.9292    0.0000 C   0  0  0  0  0  0  0  0  0  0  0  0
    7.4125   -2.5667    0.0000 C   0  0  0  0  0  0  0  0  0  0  0  0
    5.0167   -0.2792    0.0000 C   0  0  0  0  0  0  0  0  0  0  0  0
    6.9000   -3.2042    0.0000 C   0  0  0  0  0  0  0  0  0  0  0  0
    5.8917   -0.0625    0.0000 C   0  0  0  0  0  0  0  0  0  0  0  0
    4.0750   -1.8792    0.0000 O   0  0  0  0  0  0  0  0  0  0  0  0
    8.1750   -2.9417    0.0000 O   0  0  0  0  0  0  0  0  0  0  0  0
    5.2750   -6.0167    0.0000 C   0  0  0  0  0  0  0  0  0  0  0  0
   10.3250   -3.3417    0.0000 C   0  0  0  0  0  0  0  0  0  0  0  0
    7.1125   -1.8042    0.0000 C   0  0  0  0  0  0  0  0  0  0  0  0
    5.9167    0.8458    0.0000 N   0  0  0  0  0  0  0  0  0  0  0  0
    5.2750   -4.5792    0.0000 C   0  0  0  0  0  0  0  0  0  0  0  0
    4.2667    0.8458    0.0000 O   0  0  0  0  0  0  0  0  0  0  0  0
    5.6875   -5.2917    0.0000 C   0  0  0  0  0  0  0  0  0  0  0  0
    8.8917   -4.1542    0.0000 O   0  0  0  0  0  0  0  0  0  0  0  0
    4.4417   -4.5792    0.0000 O   0  0  0  0  0  0  0  0  0  0  0  0
    3.4250   -1.3792    0.0000 C   0  0  0  0  0  0  0  0  0  0  0  0
    4.4500   -6.0167    0.0000 C   0  0  0  0  0  0  0  0  0  0  0  0
    5.6792   -3.8667    0.0000 O   0  0  0  0  0  0  0  0  0  0  0  0
    4.0292   -5.3042    0.0000 C   0  0  0  0  0  0  0  0  0  0  0  0
    5.1125    1.2500    0.0000 C   0  0  0  0  0  0  0  0  0  0  0  0
    6.2917   -0.8167    0.0000 C   0  0  0  0  0  0  0  0  0  0  0  0
    6.2917   -1.6667    0.0000 C   0  0  0  0  0  0  0  0  0  0  0  0
   10.3250   -4.1667    0.0000 C   0  0  0  0  0  0  0  0  0  0  0  0
   11.0292   -2.9417    0.0000 N   0  0  0  0  0  0  0  0  0  0  0  0
    4.1000   -3.2292    0.0000 O   0  0  0  0  0  0  0  0  0  0  0  0
    9.6125   -4.5792    0.0000 C   0  0  0  0  0  0  0  0  0  0  0  0
    2.8875   -0.0542    0.0000 O   0  0  0  0  0  0  0  0  0  0  0  0
    9.6250   -2.0917    0.0000 O   0  0  0  0  0  0  0  0  0  0  0  0
    7.9125   -1.6292    0.0000 O   0  0  0  0  0  0  0  0  0  0  0  0
    4.8625   -6.7667    0.0000 O   0  0  0  0  0  0  0  0  0  0  0  0
    4.0375   -6.7292    0.0000 O   0  0  0  0  0  0  0  0  0  0  0  0
    2.7792   -0.8667    0.0000 C   0  0  0  0  0  0  0  0  0  0  0  0
    5.6792   -1.9792    0.0000 C   0  0  0  0  0  0  0  0  0  0  0  0
    5.0167   -1.0292    0.0000 C   0  0  0  0  0  0  0  0  0  0  0  0
    7.2625   -3.9542    0.0000 C   0  0  0  0  0  0  0  0  0  0  0  0
    5.8792   -6.5417    0.0000 C   0  0  0  0  0  0  0  0  0  0  0  0
    7.3750   -1.0167    0.0000 C   0  0  0  0  0  0  0  0  0  0  0  0
    5.1167    2.1875    0.0000 C   0  0  0  0  0  0  0  0  0  0  0  0
    2.6542   -1.6917    0.0000 C   0  0  0  0  0  0  0  0  0  0  0  0
    3.2000   -5.3167    0.0000 C   0  0  0  0  0  0  0  0  0  0  0  0
    7.0750   -0.4375    0.0000 C   0  0  0  0  0  0  0  0  0  0  0  0
    4.3167    2.6583    0.0000 O   0  0  0  0  0  0  0  0  0  0  0  0
    1.9042    2.1875    0.0000 O   0  0  0  0  0  0  0  0  0  0  0  0
   11.0375   -2.1167    0.0000 C   0  0  0  0  0  0  0  0  0  0  0  0
   11.7292   -3.3542    0.0000 C   0  0  0  0  0  0  0  0  0  0  0  0
    9.6000   -5.4042    0.0000 C   0  0  0  0  0  0  0  0  0  0  0  0
    5.2750   -7.4917    0.0000 C   0  0  0  0  0  0  0  0  0  0  0  0
    2.7042    2.6583    0.0000 C   0  0  0  0  0  0  0  0  0  0  0  0
    3.5125    2.1875    0.0000 C   0  0  0  0  0  0  0  0  0  0  0  0
    1.9042    1.2583    0.0000 C   0  0  0  0  0  0  0  0  0  0  0  0
    2.5375   -2.5042    0.0000 C   0  0  0  0  0  0  0  0  0  0  0  0
  2 13  1  1
  3  6  1  0
  4  1  1  0
  5 12  1  0
  6  5  1  0
  7  2  1  0
  8 16  1  0
  9  1  1  0
 10  8  1  0
 11  9  1  0
 12 23  1  0
  8 13  1  6
 14 20  1  0
 15  7  1  0
 16 29  1  0
 17 27  1  0
 18 25  1  1
  1 19  1  6
 20 18  1  0
 21  2  1  0
 22 18  1  0
 23  4  1  0
 24 26  1  0
  3 25  1  6
 26 22  1  0
 27 19  1  0
 28 11  1  0
 29 28  1  0
 30 33  1  0
 15 31  1  1
 32  5  2  0
 33 21  1  0
  4 34  1  0
  7 35  1  6
 16 36  1  0
 14 37  1  0
 24 38  1  1
  4 39  1  6
  6 40  1  6
  9 41  1  6
 10 42  1  1
 14 43  1  6
 16 44  1  6
 27 45  1  6
 23 46  1  6
 26 47  1  6
 28 48  1  6
 49 45  1  0
 50 55  1  0
 51 31  1  0
 52 31  1  0
 33 53  1  1
 54 37  1  0
 55 56  1  0
 56 49  1  0
 57 50  1  0
 58 46  1  0
 11 17  1  1
 10  3  1  0
 30 15  1  0
 14 24  1  0
M  END
>  <ID>  (996) 


>  <MOLENAME>  (996) 
DIRITHROMYCIN

>  <therap>  (996) 
antibacterial

>  <ref>  (996) 
J Antimicrob Chemother 31 Suppl C:1 (1993); Drugs 61: 443 (2001)

>  <cas#>  (996) 
62013-04-1

>  <source>  (996) 
semisynthetic; LY-237216

>  <status>  (996) 
USP, INN, BAN

>  <tradename>  (996) 
DYNABAC

>  <SMILES>  (996) 
CC[C@H]1OC(=O)[C@H](C)[C@@H](O[C@H]2C[C@@](C)(OC)[C@@H](O)[C@H](C)O2)[C@H](C)[C@@H](O[C@@H]2O[C@H](C)C[C@H](N(C)C)[C@H]2O)[C@](C)(O)C[C@@H](C)[C@@H]2N[C@@H](COCCOC)O[C@H]([C@H]2C)[C@]1(C)O

>  <standardized_failed>  (996) 
False

$$$$

     RDKit          2D

 14 13  0  0  0  0  0  0  0  0999 V2000
    4.7625   -3.0667    0.0000 C   0  0  0  0  0  0  0  0  0  0  0  0
    3.3375   -3.0667    0.0000 C   0  0  0  0  0  0  0  0  0  0  0  0
    4.0500   -2.6542    0.0000 C   0  0  0  0  0  0  0  0  0  0  0  0
    4.7625   -3.8917    0.0000 O   0  0  0  0  0  0  0  0  0  0  0  0
    5.4750   -2.6542    0.0000 N   0  0  0  0  0  0  0  0  0  0  0  0
    4.0500   -1.8292    0.0000 O   0  0  0  0  0  0  0  0  0  0  0  0
    2.6250   -2.6542    0.0000 C   0  0  0  0  0  0  0  0  0  0  0  0
    6.9000   -2.6542    0.0000 C   0  0  0  0  0  0  0  0  0  0  0  0
    2.9167   -3.7792    0.0000 C   0  0  0  0  0  0  0  0  0  0  0  0
    3.7417   -3.7792    0.0000 C   0  0  0  0  0  0  0  0  0  0  0  0
    1.9125   -3.0667    0.0000 O   0  0  0  0  0  0  0  0  0  0  0  0
    8.3250   -2.6542    0.0000 O   0  0  0  0  0  0  0  0  0  0  0  0
    6.1875   -3.0667    0.0000 C   0  0  0  0  0  0  0  0  0  0  0  0
    7.6125   -3.0667    0.0000 C   0  0  0  0  0  0  0  0  0  0  0  0
  2  3  1  0
  3  1  1  0
  4  1  2  0
  5  1  1  0
  6  3  1  0
  7  2  1  0
  8 13  1  0
  9  2  1  0
 10  2  1  0
 11  7  1  0
 12 14  1  0
 13  5  1  0
 14  8  1  0
M  END
>  <ID>  (997) 


>  <MOLENAME>  (997) 
PANTHENOL (dl)

>  <therap>  (997) 
vitamin B5 precursor, radioprotectant, antimalarial

>  <ref>  (997) 
Antimicrob Agents Chemother 49:4649 (2005); J Biol Chem 282:25395 (2007)

>  <cas#>  (997) 
16485-10-2

>  <source>  (997) 
various plants

>  <status>  (997) 
USP, INN, BAN, JAN

>  <tradename>  (997) 
ZENTINIC

>  <SMILES>  (997) 
CC(C)(CO)C(O)C(=O)NCCCO

>  <standardized_failed>  (997) 
False

$$$$

     RDKit          2D

 45 49  0  0  0  0  0  0  0  0999 V2000
    3.6375   -4.3042    0.0000 C   0  0  0  0  0  0  0  0  0  0  0  0
    2.2125   -4.3083    0.0000 C   0  0  0  0  0  0  0  0  0  0  0  0
    2.9250   -4.7167    0.0000 C   0  0  0  0  0  0  0  0  0  0  0  0
    2.2042   -3.4875    0.0000 C   0  0  0  0  0  0  0  0  0  0  0  0
    3.6375   -3.4792    0.0000 C   0  0  0  0  0  0  0  0  0  0  0  0
    2.9208   -3.0667    0.0000 N   0  0  0  0  0  0  0  0  0  0  0  0
    4.3625   -7.1917    0.0000 N   0  0  0  0  0  0  0  0  0  0  0  0
    2.9292   -5.5375    0.0000 C   0  0  0  0  0  0  0  0  0  0  0  0
    4.3542   -4.7125    0.0000 C   0  0  0  0  0  0  0  0  0  0  0  0
    1.5000   -4.7250    0.0000 C   0  0  0  0  0  0  0  0  0  0  0  0
    8.6375   -5.5333    0.0000 N   0  0  0  0  0  0  0  0  0  0  0  0
    3.6458   -6.7792    0.0000 C   0  0  0  0  0  0  0  0  0  0  0  0
    3.6458   -5.9500    0.0000 C   0  0  0  0  0  0  0  0  0  0  0  0
    9.3500   -5.9458    0.0000 C   0  0  0  0  0  0  0  0  0  0  0  0
    7.2125   -4.7083    0.0000 N   0  0  0  0  0  0  0  0  0  0  0  0
    4.3625   -8.0167    0.0000 O   0  0  0  0  0  0  0  0  0  0  0  0
    5.0750   -6.7792    0.0000 O   0  0  0  0  0  0  0  0  0  0  0  0
    8.6375   -4.7083    0.0000 C   0  0  0  0  0  0  0  0  0  0  0  0
    7.9208   -5.9417    0.0000 C   0  0  0  0  0  0  0  0  0  0  0  0
    1.5042   -5.5500    0.0000 O   0  0  0  0  0  0  0  0  0  0  0  0
    4.3542   -5.5375    0.0000 O   0  0  0  0  0  0  0  0  0  0  0  0
   10.0667   -5.5333    0.0000 C   0  0  0  0  0  0  0  0  0  0  0  0
    9.3500   -6.7708    0.0000 C   0  0  0  0  0  0  0  0  0  0  0  0
    7.2083   -5.5333    0.0000 C   0  0  0  0  0  0  0  0  0  0  0  0
    7.9208   -4.2917    0.0000 C   0  0  0  0  0  0  0  0  0  0  0  0
    5.0667   -4.3000    0.0000 O   0  0  0  0  0  0  0  0  0  0  0  0
    0.7833   -4.3167    0.0000 O   0  0  0  0  0  0  0  0  0  0  0  0
    1.4875   -3.0792    0.0000 C   0  0  0  0  0  0  0  0  0  0  0  0
    4.3500   -3.0667    0.0000 C   0  0  0  0  0  0  0  0  0  0  0  0
    2.2167   -5.9500    0.0000 C   0  0  0  0  0  0  0  0  0  0  0  0
    6.4958   -4.2958    0.0000 C   0  0  0  0  0  0  0  0  0  0  0  0
    5.7833   -4.7125    0.0000 C   0  0  0  0  0  0  0  0  0  0  0  0
    2.9292   -7.1917    0.0000 C   0  0  0  0  0  0  0  0  0  0  0  0
    2.2167   -6.7792    0.0000 C   0  0  0  0  0  0  0  0  0  0  0  0
   10.7750   -5.9500    0.0000 C   0  0  0  0  0  0  0  0  0  0  0  0
   10.0625   -4.7125    0.0000 C   0  0  0  0  0  0  0  0  0  0  0  0
    8.6333   -7.1792    0.0000 C   0  0  0  0  0  0  0  0  0  0  0  0
   10.0625   -7.1792    0.0000 C   0  0  0  0  0  0  0  0  0  0  0  0
    0.7750   -3.4917    0.0000 C   0  0  0  0  0  0  0  0  0  0  0  0
    8.6333   -8.0042    0.0000 C   0  0  0  0  0  0  0  0  0  0  0  0
   10.0625   -8.0000    0.0000 C   0  0  0  0  0  0  0  0  0  0  0  0
   11.4917   -5.5417    0.0000 C   0  0  0  0  0  0  0  0  0  0  0  0
   10.7750   -4.3000    0.0000 C   0  0  0  0  0  0  0  0  0  0  0  0
    9.3458   -8.4167    0.0000 C   0  0  0  0  0  0  0  0  0  0  0  0
   11.4917   -4.7167    0.0000 C   0  0  0  0  0  0  0  0  0  0  0  0
  2  3  1  0
  3  1  1  0
  4  6  1  0
  5  1  2  0
  6  5  1  0
  7 12  1  0
  8  3  1  0
  9  1  1  0
 10  2  1  0
 11 18  1  0
 12 13  2  0
 13  8  1  0
 14 11  1  0
 15 31  1  0
 16  7  1  0
 17  7  2  0
 18 25  1  0
 19 24  1  0
 20 10  2  0
 21  9  2  0
 22 14  1  0
 23 14  1  0
 24 15  1  0
 25 15  1  0
 26  9  1  0
 27 10  1  0
 28  4  1  0
 29  5  1  0
 30  8  2  0
 31 32  1  0
 32 26  1  0
 33 12  1  0
 34 30  1  0
 35 22  2  0
 36 22  1  0
 37 23  2  0
 38 23  1  0
 39 27  1  0
 40 37  1  0
 41 38  2  0
 42 35  1  0
 43 36  2  0
 44 41  1  0
 45 43  1  0
  2  4  2  0
 33 34  2  0
 11 19  1  0
 45 42  2  0
 44 40  2  0
M  CHG  2   7   1  16  -1
M  END
>  <ID>  (998) 


>  <MOLENAME>  (998) 
MANIDIPINE HYDROCHLORIDE

>  <therap>  (998) 
antihypertensive

>  <ref>  (998) 
Drugs (2004), 64(17), 1923-1940; J. Pharmacol. Exp. Ther. (1987), 243(2), 703-10; Chem. Pharm. Bull. (1985), 33(9), 3787-97

>  <cas#>  (998) 
89226-75-5

>  <source>  (998) 
synthetic; CV-4093

>  <status>  (998) 
USAN, INN, BAN

>  <tradename>  (998) 
CALSLOT

>  <SMILES>  (998) 
COC(=O)C1=C(C)NC(C)=C(C(=O)OCCN2CCN(C(c3ccccc3)c3ccccc3)CC2)C1c1cccc([N+](=O)[O-])c1

>  <standardized_failed>  (998) 
False

$$$$

     RDKit          2D

 20 21  0  0  0  0  0  0  0  0999 V2000
    3.0792   -2.2542    0.0000 C   0  0  0  0  0  0  0  0  0  0  0  0
    4.0625   -2.9667    0.0000 C   0  0  0  0  0  0  0  0  0  0  0  0
    3.8292   -2.2542    0.0000 N   0  0  0  0  0  0  0  0  0  0  0  0
    2.8542   -2.9667    0.0000 C   0  0  0  0  0  0  0  0  0  0  0  0
    3.4667   -3.4042    0.0000 C   0  0  0  0  0  0  0  0  0  0  0  0
    2.7042   -1.6125    0.0000 C   0  0  0  0  0  0  0  0  0  0  0  0
    4.7792   -3.2042    0.0000 C   0  0  0  0  0  0  0  0  0  0  0  0
    5.3417   -2.7042    0.0000 C   0  0  0  0  0  0  0  0  0  0  0  0
    1.9542   -1.6125    0.0000 C   0  0  0  0  0  0  0  0  0  0  0  0
    3.0792   -0.9625    0.0000 O   0  0  0  0  0  0  0  0  0  0  0  0
    5.1792   -1.9750    0.0000 O   0  0  0  0  0  0  0  0  0  0  0  0
    1.5792   -2.2625    0.0000 C   0  0  0  0  0  0  0  0  0  0  0  0
    1.5792   -0.9667    0.0000 C   0  0  0  0  0  0  0  0  0  0  0  0
    4.2792   -1.6542    0.0000 C   0  0  0  0  0  0  0  0  0  0  0  0
    0.4542   -1.6125    0.0000 C   0  0  0  0  0  0  0  0  0  0  0  0
    2.1292   -3.2042    0.0000 C   0  0  0  0  0  0  0  0  0  0  0  0
    6.0500   -2.9417    0.0000 O   0  0  0  0  0  0  0  0  0  0  0  0
    0.8292   -0.9667    0.0000 C   0  0  0  0  0  0  0  0  0  0  0  0
    0.8292   -2.2625    0.0000 C   0  0  0  0  0  0  0  0  0  0  0  0
   -0.2958   -1.6125    0.0000 Cl  0  0  0  0  0  0  0  0  0  0  0  0
  2  3  1  0
  3  1  1  0
  4  1  2  0
  5  4  1  0
  6  1  1  0
  7  2  1  0
  8  7  1  0
  9  6  1  0
 10  6  2  0
 11  8  2  0
 12  9  2  0
 13  9  1  0
 14  3  1  0
 15 18  1  0
 16  4  1  0
 17  8  1  0
 18 13  2  0
 19 12  1  0
 20 15  1  0
  2  5  2  0
 19 15  2  0
M  END
>  <ID>  (999) 


>  <MOLENAME>  (999) 
ZOMEPIRAC SODIUM

>  <therap>  (999) 
analgesic, antiinflammatory

>  <ref>  (999) 
J Clin Pharmacol 20:213 (1980); Drugs 23:250 (1982)

>  <cas#>  (999) 
64092-49-5, 64092-48-4 [anhydrous], 33369-31-2 [zomepirac]

>  <source>  (999) 
synthetic

>  <status>  (999) 
USAN, INN, BAN

>  <tradename>  (999) 
ZOMAX

>  <SMILES>  (999) 
Cc1c(C(=O)c2ccc(Cl)cc2)n(C)c(CC(=O)O)c1

>  <standardized_failed>  (999) 
False

$$$$

     RDKit          2D

 27 33  0  0  0  0  0  0  0  0999 V2000
    6.1375   -4.1833    0.0000 C   0  0  0  0  0  0  0  0  0  0  0  0
    6.6083   -4.8542    0.0000 C   0  0  0  0  0  0  0  0  0  0  0  0
    3.9083   -6.8875    0.0000 C   0  0  0  0  0  0  0  0  0  0  0  0
    3.1958   -6.4750    0.0000 C   0  0  0  0  0  0  0  0  0  0  0  0
    5.3500   -4.4292    0.0000 C   0  0  0  0  0  0  0  0  0  0  0  0
    6.1208   -5.5167    0.0000 C   0  0  0  0  0  0  0  0  0  0  0  0
    4.6250   -6.4792    0.0000 C   0  0  0  0  0  0  0  0  0  0  0  0
    5.3417   -5.2542    0.0000 C   0  0  0  0  0  0  0  0  0  0  0  0
    3.2000   -5.6500    0.0000 C   0  0  0  0  0  0  0  0  0  0  0  0
    4.6208   -5.6583    0.0000 C   0  0  0  0  0  0  0  0  0  0  0  0
    3.9125   -5.2375    0.0000 C   0  0  0  0  0  0  0  0  0  0  0  0
    4.6167   -7.3042    0.0000 C   0  0  0  0  0  0  0  0  0  0  0  0
    6.9375   -5.6083    0.0000 C   0  0  0  0  0  0  0  0  0  0  0  0
    6.9333   -3.9667    0.0000 O   0  0  0  0  0  0  0  0  0  0  0  0
    2.4875   -6.8792    0.0000 C   0  0  0  0  0  0  0  0  0  0  0  0
    4.6417   -4.0083    0.0000 C   0  0  0  0  0  0  0  0  0  0  0  0
    3.9167   -4.4125    0.0000 C   0  0  0  0  0  0  0  0  0  0  0  0
    5.6833   -3.4958    0.0000 C   0  0  0  0  0  0  0  0  0  0  0  0
    6.9708   -3.1417    0.0000 C   0  0  0  0  0  0  0  0  0  0  0  0
    2.4875   -5.2292    0.0000 C   0  0  0  0  0  0  0  0  0  0  0  0
    1.7792   -6.4750    0.0000 C   0  0  0  0  0  0  0  0  0  0  0  0
    7.6625   -2.6917    0.0000 O   0  0  0  0  0  0  0  0  0  0  0  0
    1.0625   -6.8875    0.0000 O   0  0  0  0  0  0  0  0  0  0  0  0
    6.2000   -2.8500    0.0000 C   0  0  0  0  0  0  0  0  0  0  0  0
    5.1292   -3.6292    0.0000 C   0  0  0  0  0  0  0  0  0  0  0  0
    1.7792   -5.6500    0.0000 C   0  0  0  0  0  0  0  0  0  0  0  0
    3.1917   -4.8250    0.0000 C   0  0  0  0  0  0  0  0  0  0  0  0
  2  1  1  0
  3  7  1  0
  4  9  1  0
  5  1  1  0
  6  2  1  0
  7 10  1  0
  8  5  1  0
  9 11  1  0
 10  8  1  0
 11 10  1  0
  7 12  1  1
  2 13  1  1
  1 14  1  0
 15  4  2  0
 16  5  1  0
 17 16  1  0
  1 18  1  6
 19 14  1  0
 20  9  1  0
 21 15  1  0
 22 19  2  0
 23 21  2  0
 24 18  1  0
  5 25  1  1
 26 20  1  0
  9 27  1  1
 24 19  1  0
  6  8  1  0
  6 13  1  1
 17 11  1  0
  3 12  1  1
  3  4  1  0
 21 26  1  0
M  END
>  <ID>  (1000) 


>  <MOLENAME>  (1000) 
DROSPIRENONE

>  <therap>  (1000) 
aldosterone antagonist

>  <ref>  (1000) 
J. Med. Chem. (1985), 28(5), 546-50; Arzneim. Forsch. (1984), 34(3), 241-6; Angew. Chem. (1982), 94(9), 718-19

>  <cas#>  (1000) 
67392-87-4

>  <source>  (1000) 
synthetic; ZK-30595

>  <status>  (1000) 
USP, INN, BAN

>  <tradename>  (1000) 
nan

>  <SMILES>  (1000) 
C[C@]12CCC3C(C1[C@@H]1C[C@@H]1[C@@]21CCC(=O)O1)[C@H]1C[C@H]1C1=CC(=O)CC[C@@]13C

>  <standardized_failed>  (1000) 
False

$$$$

     RDKit          2D

 19 20  0  0  0  0  0  0  0  0999 V2000
    3.1000   -2.3292    0.0000 N   0  0  0  0  0  0  0  0  0  0  0  0
    3.1042   -3.9875    0.0000 N   0  0  0  0  0  0  0  0  0  0  0  0
    3.8167   -2.7417    0.0000 C   0  0  0  0  0  0  0  0  0  0  0  0
    2.3917   -2.7500    0.0000 C   0  0  0  0  0  0  0  0  0  0  0  0
    2.3917   -3.5750    0.0000 C   0  0  0  0  0  0  0  0  0  0  0  0
    3.8167   -3.5667    0.0000 C   0  0  0  0  0  0  0  0  0  0  0  0
    6.6667   -2.7292    0.0000 C   0  0  0  0  0  0  0  0  0  0  0  0
    3.0917   -1.5042    0.0000 O   0  0  0  0  0  0  0  0  0  0  0  0
    4.5292   -2.3292    0.0000 C   0  0  0  0  0  0  0  0  0  0  0  0
    3.1042   -4.8125    0.0000 O   0  0  0  0  0  0  0  0  0  0  0  0
    5.2417   -2.7375    0.0000 N   0  0  0  0  0  0  0  0  0  0  0  0
    5.9542   -2.3250    0.0000 N   0  0  0  0  0  0  0  0  0  0  0  0
    6.6667   -3.5542    0.0000 O   0  0  0  0  0  0  0  0  0  0  0  0
    7.3792   -2.3167    0.0000 O   0  0  0  0  0  0  0  0  0  0  0  0
    1.6750   -2.3375    0.0000 C   0  0  0  0  0  0  0  0  0  0  0  0
    1.6750   -3.9917    0.0000 C   0  0  0  0  0  0  0  0  0  0  0  0
    8.0917   -2.7292    0.0000 C   0  0  0  0  0  0  0  0  0  0  0  0
    0.9625   -2.7500    0.0000 C   0  0  0  0  0  0  0  0  0  0  0  0
    0.9625   -3.5792    0.0000 C   0  0  0  0  0  0  0  0  0  0  0  0
  2  5  1  0
  3  1  2  0
  4  1  1  0
  5  4  2  0
  6  3  1  0
  7 12  1  0
  8  1  1  0
  9  3  1  0
 10  2  1  0
 11  9  2  0
 12 11  1  0
 13  7  2  0
 14  7  1  0
 15  4  1  0
 16  5  1  0
 17 14  1  0
 18 15  2  0
 19 18  1  0
  6  2  2  0
 16 19  2  0
M  CHG  4   1   1   2   1   8  -1  10  -1
M  END
>  <ID>  (1001) 


>  <MOLENAME>  (1001) 
CARBADOX

>  <therap>  (1001) 
antibacterial

>  <ref>  (1001) 
J Vet Med Sci 65:1275 (2003)

>  <cas#>  (1001) 
6804-07-5

>  <source>  (1001) 
synthetic

>  <status>  (1001) 
USAN, INN, BAN

>  <tradename>  (1001) 
MECADOX

>  <SMILES>  (1001) 
COC(=O)N/N=C/c1[n+]([O-])c2c(cccc2)[n+]([O-])c1

>  <standardized_failed>  (1001) 
False

$$$$

     RDKit          2D

 17 18  0  0  0  0  0  0  0  0999 V2000
    3.6125   -0.8667    0.0000 N   0  0  0  0  0  0  0  0  0  0  0  0
    3.1917   -1.5792    0.0000 C   0  0  0  0  0  0  0  0  0  0  0  0
    4.6917   -0.0792    0.0000 C   0  0  0  0  0  0  0  0  0  0  0  0
    4.4375   -0.8667    0.0000 N   0  0  0  0  0  0  0  0  0  0  0  0
    4.0250    0.4083    0.0000 N   0  0  0  0  0  0  0  0  0  0  0  0
    3.5167   -2.3417    0.0000 C   0  0  0  0  0  0  0  0  0  0  0  0
    2.3667   -1.6542    0.0000 O   0  0  0  0  0  0  0  0  0  0  0  0
    3.3542   -0.0792    0.0000 C   0  0  0  0  0  0  0  0  0  0  0  0
    2.9000   -2.8875    0.0000 C   0  0  0  0  0  0  0  0  0  0  0  0
    2.1875   -2.4667    0.0000 C   0  0  0  0  0  0  0  0  0  0  0  0
    5.4792    0.1750    0.0000 C   0  0  0  0  0  0  0  0  0  0  0  0
    5.6500    0.9833    0.0000 O   0  0  0  0  0  0  0  0  0  0  0  0
    4.3250   -2.5167    0.0000 O   0  0  0  0  0  0  0  0  0  0  0  0
    6.0875   -0.3792    0.0000 N   0  0  0  0  0  0  0  0  0  0  0  0
    2.9750   -3.7042    0.0000 O   0  0  0  0  0  0  0  0  0  0  0  0
    1.4292   -2.7917    0.0000 C   0  0  0  0  0  0  0  0  0  0  0  0
    0.7667   -2.3042    0.0000 O   0  0  0  0  0  0  0  0  0  0  0  0
  2  1  1  1
  3  4  2  0
  4  1  1  0
  5  8  2  0
  6  2  1  0
  7  2  1  0
  8  1  1  0
  9  6  1  0
 10  7  1  0
 11  3  1  0
 12 11  2  0
  6 13  1  6
 14 11  1  0
  9 15  1  6
 10 16  1  1
 17 16  1  0
  3  5  1  0
 10  9  1  0
M  END
>  <ID>  (1002) 


>  <MOLENAME>  (1002) 
RIBAVIRIN

>  <therap>  (1002) 
antiviral

>  <ref>  (1002) 
Pharmacol Ther 6:123 (1979); N Engl J Med 308:1443 (1983); Lancet 351:83 (1998)

>  <cas#>  (1002) 
36791-04-5

>  <source>  (1002) 
synthetic

>  <status>  (1002) 
USP, INN, BAN

>  <tradename>  (1002) 
REBETOL

>  <SMILES>  (1002) 
NC(=O)c1nn([C@@H]2O[C@H](CO)[C@@H](O)[C@H]2O)cn1

>  <standardized_failed>  (1002) 
False

$$$$

     RDKit          2D

 46 49  0  0  0  0  0  0  0  0999 V2000
    4.2292   -5.4833    0.0000 C   0  0  0  0  0  0  0  0  0  0  0  0
    5.6583   -5.4833    0.0000 C   0  0  0  0  0  0  0  0  0  0  0  0
    4.9458   -5.8958    0.0000 N   0  0  0  0  0  0  0  0  0  0  0  0
    5.6542   -4.6542    0.0000 N   0  0  0  0  0  0  0  0  0  0  0  0
    4.2250   -4.6625    0.0000 N   0  0  0  0  0  0  0  0  0  0  0  0
    4.9333   -4.2458    0.0000 C   0  0  0  0  0  0  0  0  0  0  0  0
    3.5208   -5.9000    0.0000 C   0  0  0  0  0  0  0  0  0  0  0  0
    6.3708   -5.8875    0.0000 C   0  0  0  0  0  0  0  0  0  0  0  0
    2.8042   -5.4875    0.0000 C   0  0  0  0  0  0  0  0  0  0  0  0
    7.0792   -5.4750    0.0000 C   0  0  0  0  0  0  0  0  0  0  0  0
    6.3708   -6.7167    0.0000 C   0  0  0  0  0  0  0  0  0  0  0  0
    3.5208   -6.7292    0.0000 C   0  0  0  0  0  0  0  0  0  0  0  0
    7.7958   -5.8833    0.0000 C   0  0  0  0  0  0  0  0  0  0  0  0
    2.0917   -5.9000    0.0000 C   0  0  0  0  0  0  0  0  0  0  0  0
    4.9292   -3.4250    0.0000 C   0  0  0  0  0  0  0  0  0  0  0  0
    7.8000   -6.7125    0.0000 C   0  0  0  0  0  0  0  0  0  0  0  0
    2.0917   -6.7292    0.0000 C   0  0  0  0  0  0  0  0  0  0  0  0
    5.6417   -3.0083    0.0000 C   0  0  0  0  0  0  0  0  0  0  0  0
    4.2125   -3.0208    0.0000 C   0  0  0  0  0  0  0  0  0  0  0  0
    1.3750   -7.1417    0.0000 O   0  0  0  0  0  0  0  0  0  0  0  0
    8.5167   -7.1208    0.0000 O   0  0  0  0  0  0  0  0  0  0  0  0
    2.8042   -7.1417    0.0000 C   0  0  0  0  0  0  0  0  0  0  0  0
    7.0875   -7.1250    0.0000 C   0  0  0  0  0  0  0  0  0  0  0  0
    7.0750   -4.6500    0.0000 O   0  0  0  0  0  0  0  0  0  0  0  0
    2.8000   -4.6625    0.0000 O   0  0  0  0  0  0  0  0  0  0  0  0
    4.9167   -1.7750    0.0000 C   0  0  0  0  0  0  0  0  0  0  0  0
    4.2042   -2.1958    0.0000 C   0  0  0  0  0  0  0  0  0  0  0  0
    5.6333   -2.1833    0.0000 C   0  0  0  0  0  0  0  0  0  0  0  0
    0.6625   -6.7292    0.0000 C   0  0  0  0  0  0  0  0  0  0  0  0
    9.2292   -6.7042    0.0000 C   0  0  0  0  0  0  0  0  0  0  0  0
    4.9083   -0.9500    0.0000 O   0  0  0  0  0  0  0  0  0  0  0  0
   -0.0500   -7.1417    0.0000 C   0  0  0  0  0  0  0  0  0  0  0  0
    9.9417   -7.1167    0.0000 C   0  0  0  0  0  0  0  0  0  0  0  0
    5.6208   -0.5333    0.0000 C   0  0  0  0  0  0  0  0  0  0  0  0
   -0.0500   -7.9667    0.0000 C   0  0  0  0  0  0  0  0  0  0  0  0
    9.9417   -7.9417    0.0000 C   0  0  0  0  0  0  0  0  0  0  0  0
   -0.7625   -6.7292    0.0000 C   0  0  0  0  0  0  0  0  0  0  0  0
   10.6542   -6.7042    0.0000 C   0  0  0  0  0  0  0  0  0  0  0  0
   -2.1875   -6.7292    0.0000 C   0  0  0  0  0  0  0  0  0  0  0  0
   12.0792   -6.7000    0.0000 C   0  0  0  0  0  0  0  0  0  0  0  0
   11.3667   -7.1125    0.0000 C   0  0  0  0  0  0  0  0  0  0  0  0
   -1.4750   -7.1417    0.0000 C   0  0  0  0  0  0  0  0  0  0  0  0
   -0.7667   -8.3792    0.0000 C   0  0  0  0  0  0  0  0  0  0  0  0
    9.2292   -8.3542    0.0000 C   0  0  0  0  0  0  0  0  0  0  0  0
   -2.9000   -7.1417    0.0000 C   0  0  0  0  0  0  0  0  0  0  0  0
   12.7917   -7.1042    0.0000 C   0  0  0  0  0  0  0  0  0  0  0  0
  2  3  2  0
  3  1  1  0
  4  2  1  0
  5  1  2  0
  6  5  1  0
  7  1  1  0
  8  2  1  0
  9  7  2  0
 10  8  2  0
 11  8  1  0
 12  7  1  0
 13 10  1  0
 14  9  1  0
 15  6  1  0
 16 13  2  0
 17 22  1  0
 18 15  2  0
 19 15  1  0
 20 17  1  0
 21 16  1  0
 22 12  2  0
 23 11  2  0
 24 10  1  0
 25  9  1  0
 26 28  2  0
 27 19  2  0
 28 18  1  0
 29 20  1  0
 30 21  1  0
 31 26  1  0
 32 29  1  0
 33 30  1  0
 34 31  1  0
 35 32  1  0
 36 33  1  0
 37 32  1  0
 38 33  1  0
 39 42  1  0
 40 41  1  0
 41 38  1  0
 42 37  1  0
 43 35  1  0
 44 36  1  0
 45 39  1  0
 46 40  1  0
  6  4  2  0
 17 14  2  0
 16 23  1  0
 27 26  1  0
M  END
>  <ID>  (1003) 


>  <MOLENAME>  (1003) 
BEMOTRIZINOL

>  <therap>  (1003) 
sunscreen

>  <ref>  (1003) 
Regul Toxicol Pharmacol 34:287 (2001); Cosmet Toiletries 118:47 (2003)

>  <cas#>  (1003) 
187393-00-6

>  <source>  (1003) 
synthetic; BEMT, FAT-70884

>  <status>  (1003) 
USAN, INN

>  <tradename>  (1003) 
TINOSORB S

>  <SMILES>  (1003) 
CCCCC(CC)COc1cc(O)c(-c2nc(-c3ccc(OC)cc3)nc(-c3c(O)cc(OCC(CC)CCCC)cc3)n2)cc1

>  <standardized_failed>  (1003) 
False

$$$$

     RDKit          2D

 25 29  0  0  0  0  0  0  0  0999 V2000
    4.8667   -5.1292    0.0000 C   0  0  0  0  0  0  0  0  0  0  0  0
    7.0125   -3.8875    0.0000 C   0  0  0  0  0  0  0  0  0  0  0  0
    4.8667   -5.9542    0.0000 C   0  0  0  0  0  0  0  0  0  0  0  0
    7.7917   -3.6292    0.0000 C   0  0  0  0  0  0  0  0  0  0  0  0
    6.2917   -5.1292    0.0000 C   0  0  0  0  0  0  0  0  0  0  0  0
    5.5792   -4.7167    0.0000 C   0  0  0  0  0  0  0  0  0  0  0  0
    7.0125   -4.7167    0.0000 C   0  0  0  0  0  0  0  0  0  0  0  0
    6.2917   -5.9542    0.0000 C   0  0  0  0  0  0  0  0  0  0  0  0
    8.5792   -3.3792    0.0000 O   0  0  0  0  0  0  0  0  0  0  0  0
    5.5792   -6.3667    0.0000 C   0  0  0  0  0  0  0  0  0  0  0  0
    4.1542   -6.3667    0.0000 C   0  0  0  0  0  0  0  0  0  0  0  0
    6.2917   -3.4750    0.0000 C   0  0  0  0  0  0  0  0  0  0  0  0
    8.5792   -2.5500    0.0000 C   0  0  0  0  0  0  0  0  0  0  0  0
    5.5792   -3.8875    0.0000 C   0  0  0  0  0  0  0  0  0  0  0  0
    4.1542   -4.7167    0.0000 C   0  0  0  0  0  0  0  0  0  0  0  0
    7.7917   -4.9667    0.0000 C   0  0  0  0  0  0  0  0  0  0  0  0
    8.2792   -4.3000    0.0000 C   0  0  0  0  0  0  0  0  0  0  0  0
    3.4375   -5.9542    0.0000 C   0  0  0  0  0  0  0  0  0  0  0  0
    7.3125   -2.9625    0.0000 C   0  0  0  0  0  0  0  0  0  0  0  0
    9.2250   -2.0292    0.0000 O   0  0  0  0  0  0  0  0  0  0  0  0
    2.7167   -6.3792    0.0000 O   0  0  0  0  0  0  0  0  0  0  0  0
    7.8000   -2.2917    0.0000 C   0  0  0  0  0  0  0  0  0  0  0  0
    3.4375   -5.1292    0.0000 C   0  0  0  0  0  0  0  0  0  0  0  0
    4.8667   -4.3000    0.0000 C   0  0  0  0  0  0  0  0  0  0  0  0
    7.0042   -3.1000    0.0000 C   0  0  0  0  0  0  0  0  0  0  0  0
  2 12  1  0
  3  1  1  0
  4  2  1  0
  5  6  1  0
  6  1  1  0
  7  5  1  0
  8  5  1  0
  4  9  1  0
 10  3  1  0
 11  3  2  0
 12 14  1  0
 13  9  1  0
 14  6  1  0
 15  1  1  0
 16  7  1  0
 17 16  1  0
 18 23  1  0
  4 19  1  6
 20 13  2  0
 21 18  2  0
 22 19  1  0
 23 15  1  0
  1 24  1  1
  2 25  1  1
 10  8  2  0
 18 11  1  0
  2  7  1  0
 17  4  1  0
 13 22  1  0
M  END
>  <ID>  (1004) 


>  <MOLENAME>  (1004) 
CANRENONE

>  <therap>  (1004) 
aldosterone antagonist; antifibrogenic

>  <ref>  (1004) 
Eur J Clin Pharmacol 9: 253 (1976); Gastroenterology 124: 504 (2003)

>  <cas#>  (1004) 
976-71-6

>  <source>  (1004) 
synthetic; SC-9376

>  <status>  (1004) 
USAN, INN

>  <tradename>  (1004) 
nan

>  <SMILES>  (1004) 
C[C@]12CCC3C(C=CC4=CC(=O)CC[C@@]43C)C1CC[C@@]21CCC(=O)O1

>  <standardized_failed>  (1004) 
False

$$$$

     RDKit          2D

 26 29  0  0  0  0  0  0  0  0999 V2000
    4.4542   -3.3250    0.0000 C   0  0  0  0  0  0  0  0  0  0  0  0
    4.4542   -4.1417    0.0000 C   0  0  0  0  0  0  0  0  0  0  0  0
    3.7417   -2.9042    0.0000 C   0  0  0  0  0  0  0  0  0  0  0  0
    3.7417   -4.5542    0.0000 C   0  0  0  0  0  0  0  0  0  0  0  0
    3.0292   -3.3125    0.0000 C   0  0  0  0  0  0  0  0  0  0  0  0
    3.0250   -4.1292    0.0000 C   0  0  0  0  0  0  0  0  0  0  0  0
    5.1750   -2.9167    0.0000 C   0  0  0  0  0  0  0  0  0  0  0  0
    3.7500   -2.0792    0.0000 O   0  0  0  0  0  0  0  0  0  0  0  0
    3.7375   -5.3792    0.0000 O   0  0  0  0  0  0  0  0  0  0  0  0
    7.3042   -1.6750    0.0000 C   0  0  0  0  0  0  0  0  0  0  0  0
    5.1667   -4.5542    0.0000 O   0  0  0  0  0  0  0  0  0  0  0  0
    6.5917   -2.0917    0.0000 C   0  0  0  0  0  0  0  0  0  0  0  0
    5.8792   -3.3250    0.0000 C   0  0  0  0  0  0  0  0  0  0  0  0
    5.1750   -2.0917    0.0000 C   0  0  0  0  0  0  0  0  0  0  0  0
    6.5917   -2.9167    0.0000 C   0  0  0  0  0  0  0  0  0  0  0  0
    5.8792   -1.6750    0.0000 C   0  0  0  0  0  0  0  0  0  0  0  0
    7.3000   -0.8542    0.0000 C   0  0  0  0  0  0  0  0  0  0  0  0
    8.0167   -2.0792    0.0000 C   0  0  0  0  0  0  0  0  0  0  0  0
    8.7250   -0.8417    0.0000 C   0  0  0  0  0  0  0  0  0  0  0  0
    8.7292   -1.6667    0.0000 C   0  0  0  0  0  0  0  0  0  0  0  0
    8.0042   -0.4375    0.0000 C   0  0  0  0  0  0  0  0  0  0  0  0
    9.4292   -0.4250    0.0000 Cl  0  0  0  0  0  0  0  0  0  0  0  0
    2.3167   -2.8917    0.0000 C   0  0  0  0  0  0  0  0  0  0  0  0
    2.3125   -4.5417    0.0000 C   0  0  0  0  0  0  0  0  0  0  0  0
    1.6042   -4.1250    0.0000 C   0  0  0  0  0  0  0  0  0  0  0  0
    1.6042   -3.3000    0.0000 C   0  0  0  0  0  0  0  0  0  0  0  0
  2  1  2  0
  3  1  1  0
  4  2  1  0
  5  3  1  0
  6  5  2  0
  7  1  1  0
  8  3  2  0
  9  4  2  0
 12 10  1  0
 11  2  1  0
 12 16  1  1
  7 13  1  6
 14  7  1  0
 15 13  1  0
 16 14  1  0
 17 10  2  0
 18 10  1  0
 19 20  1  0
 20 18  2  0
 21 17  1  0
 22 19  1  0
 23  5  1  0
 24  6  1  0
 25 26  1  0
 26 23  2  0
 12 15  1  0
  6  4  1  0
 24 25  2  0
 19 21  2  0
M  END
>  <ID>  (1005) 


>  <MOLENAME>  (1005) 
ATOVAQUONE

>  <therap>  (1005) 
antipneumocystic, antimalarial

>  <ref>  (1005) 
Drug Exper Clin Res 17:427 (1991); Biochem Pharmacol 43:1545 (1992); N Engl J Med 339:1889 (1998)

>  <cas#>  (1005) 
95233-18-4

>  <source>  (1005) 
synthetic

>  <status>  (1005) 
USP, INN, BAN

>  <tradename>  (1005) 
MEPRON

>  <SMILES>  (1005) 
O=C1C(O)=C([C@H]2CC[C@H](c3ccc(Cl)cc3)CC2)C(=O)c2c1cccc2

>  <standardized_failed>  (1005) 
False

$$$$

     RDKit          2D

 35 39  0  0  0  0  0  0  0  0999 V2000
    5.8292   -3.4583    0.0000 C   0  0  0  0  0  0  0  0  0  0  0  0
    6.6125   -3.2125    0.0000 C   0  0  0  0  0  0  0  0  0  0  0  0
    4.3917   -4.2667    0.0000 C   0  0  0  0  0  0  0  0  0  0  0  0
    3.6792   -4.6792    0.0000 C   0  0  0  0  0  0  0  0  0  0  0  0
    5.8208   -4.2833    0.0000 C   0  0  0  0  0  0  0  0  0  0  0  0
    5.1000   -4.6875    0.0000 C   0  0  0  0  0  0  0  0  0  0  0  0
    3.6750   -5.5042    0.0000 C   0  0  0  0  0  0  0  0  0  0  0  0
    7.4042   -2.9917    0.0000 O   0  0  0  0  0  0  0  0  0  0  0  0
    4.4000   -3.4417    0.0000 C   0  0  0  0  0  0  0  0  0  0  0  0
    5.1208   -3.0375    0.0000 C   0  0  0  0  0  0  0  0  0  0  0  0
    7.0875   -3.8833    0.0000 C   0  0  0  0  0  0  0  0  0  0  0  0
    8.2042   -3.2042    0.0000 C   0  0  0  0  0  0  0  0  0  0  0  0
    2.9667   -4.2583    0.0000 C   0  0  0  0  0  0  0  0  0  0  0  0
    6.6000   -4.5417    0.0000 C   0  0  0  0  0  0  0  0  0  0  0  0
    8.7875   -2.6167    0.0000 C   0  0  0  0  0  0  0  0  0  0  0  0
    2.9667   -5.9125    0.0000 C   0  0  0  0  0  0  0  0  0  0  0  0
    6.6042   -2.3875    0.0000 C   0  0  0  0  0  0  0  0  0  0  0  0
    5.1042   -5.5083    0.0000 C   0  0  0  0  0  0  0  0  0  0  0  0
    2.2542   -4.6792    0.0000 C   0  0  0  0  0  0  0  0  0  0  0  0
    2.2542   -5.5042    0.0000 C   0  0  0  0  0  0  0  0  0  0  0  0
    8.6542   -1.8000    0.0000 O   0  0  0  0  0  0  0  0  0  0  0  0
    4.3875   -5.9167    0.0000 C   0  0  0  0  0  0  0  0  0  0  0  0
    8.4167   -4.0042    0.0000 O   0  0  0  0  0  0  0  0  0  0  0  0
    9.6042   -2.7458    0.0000 C   0  0  0  0  0  0  0  0  0  0  0  0
    4.3875   -5.0917    0.0000 Cl  0  0  0  0  0  0  0  0  0  0  0  0
    7.3167   -1.9667    0.0000 O   0  0  0  0  0  0  0  0  0  0  0  0
    9.3875   -1.4250    0.0000 C   0  0  0  0  0  0  0  0  0  0  0  0
    9.9750   -2.0083    0.0000 C   0  0  0  0  0  0  0  0  0  0  0  0
    1.5417   -5.9167    0.0000 O   0  0  0  0  0  0  0  0  0  0  0  0
    5.8250   -2.6292    0.0000 C   0  0  0  0  0  0  0  0  0  0  0  0
    3.6792   -3.0292    0.0000 O   0  0  0  0  0  0  0  0  0  0  0  0
    3.6750   -3.8542    0.0000 C   0  0  0  0  0  0  0  0  0  0  0  0
    5.8875   -1.9792    0.0000 C   0  0  0  0  0  0  0  0  0  0  0  0
    5.8833   -1.1542    0.0000 Cl  0  0  0  0  0  0  0  0  0  0  0  0
    7.8167   -4.2417    0.0000 C   0  0  0  0  0  0  0  0  0  0  0  0
  2  1  1  0
  3  6  1  0
  4  3  1  0
  5  1  1  0
  6  5  1  0
  7  4  1  0
  2  8  1  6
  9 10  1  0
 10  1  1  0
 11  2  1  0
 12  8  1  0
 13  4  1  0
 14  5  1  0
 15 12  1  0
 16  7  2  0
  2 17  1  0
 18  6  1  0
 19 13  2  0
 20 16  1  0
 21 15  1  0
 22 18  1  0
 23 12  2  0
 24 15  2  0
  3 25  1  6
 26 17  2  0
 27 21  1  0
 28 24  1  0
 29 20  2  0
  1 30  1  1
  9 31  1  1
  4 32  1  1
 33 17  1  0
 34 33  1  0
 11 35  1  6
 11 14  1  0
  9  3  1  0
 22  7  1  0
 27 28  2  0
 20 19  1  0
M  END
>  <ID>  (1006) 


>  <MOLENAME>  (1006) 
MOMETASONE FUROATE

>  <therap>  (1006) 
antiinflammatory, glucocorticoid

>  <ref>  (1006) 
Int. J. Clin. Pract. (2009), 63(5), 806-819; Drugs (2001), 61(9), 1325-50; Drugs (1998), 55(1), 145-63

>  <cas#>  (1006) 
83919-23-7

>  <source>  (1006) 
semisynthetic; Sch-32088

>  <status>  (1006) 
USP, INN, BAN, JAN

>  <tradename>  (1006) 
ASMANEX

>  <SMILES>  (1006) 
C[C@@H]1CC2C3CCC4=CC(=O)C=C[C@]4(C)[C@@]3(Cl)[C@@H](O)C[C@]2(C)[C@@]1(OC(=O)c1ccco1)C(=O)CCl

>  <standardized_failed>  (1006) 
False

$$$$

     RDKit          2D

 26 26  0  0  0  0  0  0  0  0999 V2000
    7.7792   -0.6667    0.0000 S   0  0  0  0  0  0  0  0  0  0  0  0
    2.3667   -2.1792    0.0000 C   0  0  0  0  0  0  0  0  0  0  0  0
    7.1000   -0.6667    0.0000 O   0  0  0  0  0  0  0  0  0  0  0  0
    8.4625   -0.6875    0.0000 O   0  0  0  0  0  0  0  0  0  0  0  0
    3.0833   -2.5917    0.0000 C   0  0  0  0  0  0  0  0  0  0  0  0
    3.7917   -2.1792    0.0000 O   0  0  0  0  0  0  0  0  0  0  0  0
    6.6417   -2.1667    0.0000 N   0  0  0  0  0  0  0  0  0  0  0  0
    7.6042   -1.3292    0.0000 O   0  0  0  0  0  0  0  0  0  0  0  0
    7.7792    0.0083    0.0000 O   0  0  0  0  0  0  0  0  0  0  0  0
    7.3542   -2.5792    0.0000 C   0  0  0  0  0  0  0  0  0  0  0  0
    2.3625   -1.3542    0.0000 C   0  0  0  0  0  0  0  0  0  0  0  0
    5.2167   -2.1750    0.0000 C   0  0  0  0  0  0  0  0  0  0  0  0
    4.5042   -2.5875    0.0000 C   0  0  0  0  0  0  0  0  0  0  0  0
    5.9292   -2.5792    0.0000 C   0  0  0  0  0  0  0  0  0  0  0  0
    5.2167   -1.3500    0.0000 O   0  0  0  0  0  0  0  0  0  0  0  0
    1.6542   -2.5917    0.0000 C   0  0  0  0  0  0  0  0  0  0  0  0
    3.0833   -3.4208    0.0000 C   0  0  0  0  0  0  0  0  0  0  0  0
    8.0667   -2.9917    0.0000 C   0  0  0  0  0  0  0  0  0  0  0  0
    8.0667   -2.1667    0.0000 C   0  0  0  0  0  0  0  0  0  0  0  0
    7.3583   -3.4042    0.0000 C   0  0  0  0  0  0  0  0  0  0  0  0
    1.6917   -0.8750    0.0000 C   0  0  0  0  0  0  0  0  0  0  0  0
    3.0250   -0.8708    0.0000 C   0  0  0  0  0  0  0  0  0  0  0  0
    1.6542   -3.4208    0.0000 C   0  0  0  0  0  0  0  0  0  0  0  0
    2.3667   -3.8333    0.0000 C   0  0  0  0  0  0  0  0  0  0  0  0
    2.7708   -0.0875    0.0000 C   0  0  0  0  0  0  0  0  0  0  0  0
    1.9458   -0.0917    0.0000 C   0  0  0  0  0  0  0  0  0  0  0  0
  3  1  2  0
  4  1  2  0
  5  2  2  0
  6  5  1  0
  7 14  1  0
  8  1  1  0
  9  1  1  0
 10  7  1  0
 11  2  1  0
 12 13  1  0
 13  6  1  0
 14 12  1  0
 12 15  1  1
 16  2  1  0
 17  5  1  0
 18 10  1  0
 19 10  1  0
 20 10  1  0
 21 11  1  0
 22 11  1  0
 23 16  2  0
 24 23  1  0
 25 22  1  0
 26 21  1  0
 17 24  2  0
 26 25  1  0
M  END
>  <ID>  (1007) 


>  <MOLENAME>  (1007) 
PENBUTOLOL SULFATE

>  <therap>  (1007) 
beta-adrenergic blocker

>  <ref>  (1007) 
Drug Delivery 16:11 (2009)

>  <cas#>  (1007) 
38363-32-5

>  <source>  (1007) 
synthetic; HOE-893d, HOE-39893d

>  <status>  (1007) 
USP, INN, BAN, JAN

>  <tradename>  (1007) 
LEVATOL

>  <SMILES>  (1007) 
CC(C)(C)NC[C@H](O)COc1c(C2CCCC2)cccc1

>  <standardized_failed>  (1007) 
False

$$$$

     RDKit          2D

 11 11  0  0  0  0  0  0  0  0999 V2000
    5.6292   -3.2042    0.0000 N   0  0  0  0  0  0  0  0  0  0  0  0
    5.8875   -2.4167    0.0000 C   0  0  0  0  0  0  0  0  0  0  0  0
    4.8042   -3.2042    0.0000 C   0  0  0  0  0  0  0  0  0  0  0  0
    5.2167   -1.9292    0.0000 O   0  0  0  0  0  0  0  0  0  0  0  0
    4.5542   -2.4167    0.0000 C   0  0  0  0  0  0  0  0  0  0  0  0
    6.6750   -2.1625    0.0000 O   0  0  0  0  0  0  0  0  0  0  0  0
    4.3208   -3.8708    0.0000 O   0  0  0  0  0  0  0  0  0  0  0  0
    6.1167   -3.8708    0.0000 C   0  0  0  0  0  0  0  0  0  0  0  0
    3.7542   -2.6292    0.0000 C   0  0  0  0  0  0  0  0  0  0  0  0
    3.9667   -1.8292    0.0000 C   0  0  0  0  0  0  0  0  0  0  0  0
    3.5333   -3.4208    0.0000 C   0  0  0  0  0  0  0  0  0  0  0  0
  2  1  1  0
  3  1  1  0
  4  2  1  0
  5  3  1  0
  6  2  2  0
  7  3  2  0
  8  1  1  0
  9  5  1  0
 10  5  1  0
 11  9  1  0
  5  4  1  0
M  END
>  <ID>  (1008) 


>  <MOLENAME>  (1008) 
PARAMETHADIONE

>  <therap>  (1008) 
anticonvulsant

>  <ref>  (1008) 
J Pharmacol Exp Ther 113:178 (1955); J Pharm Sci 64:1702 (1975)

>  <cas#>  (1008) 
115-67-3

>  <source>  (1008) 
synthetic

>  <status>  (1008) 
USP-XXII, INN, BAN

>  <tradename>  (1008) 
PARADIONE

>  <SMILES>  (1008) 
CCC1(C)OC(=O)N(C)C1=O

>  <standardized_failed>  (1008) 
False

$$$$

     RDKit          2D

 15 16  0  0  0  0  0  0  0  0999 V2000
    3.5250   -2.3375    0.0000 N   0  0  0  0  0  0  0  0  0  0  0  0
    3.2708   -1.5500    0.0000 C   0  0  0  0  0  0  0  0  0  0  0  0
    4.3500   -2.3375    0.0000 C   0  0  0  0  0  0  0  0  0  0  0  0
    3.9375   -1.0667    0.0000 N   0  0  0  0  0  0  0  0  0  0  0  0
    4.6042   -1.5500    0.0000 C   0  0  0  0  0  0  0  0  0  0  0  0
    2.4875   -1.2958    0.0000 O   0  0  0  0  0  0  0  0  0  0  0  0
    4.8333   -3.0042    0.0000 O   0  0  0  0  0  0  0  0  0  0  0  0
    5.3917   -1.2958    0.0000 C   0  0  0  0  0  0  0  0  0  0  0  0
    3.0375   -3.0042    0.0000 C   0  0  0  0  0  0  0  0  0  0  0  0
    5.5583   -0.4917    0.0000 C   0  0  0  0  0  0  0  0  0  0  0  0
    6.0000   -1.8500    0.0000 C   0  0  0  0  0  0  0  0  0  0  0  0
    2.2167   -2.9167    0.0000 C   0  0  0  0  0  0  0  0  0  0  0  0
    6.3375   -0.2375    0.0000 C   0  0  0  0  0  0  0  0  0  0  0  0
    6.7833   -1.5958    0.0000 C   0  0  0  0  0  0  0  0  0  0  0  0
    6.9542   -0.7917    0.0000 C   0  0  0  0  0  0  0  0  0  0  0  0
  2  1  1  0
  3  1  1  0
  4  2  1  0
  5  3  1  0
  6  2  2  0
  7  3  2  0
  8  5  1  0
  9  1  1  0
 10  8  2  0
 11  8  1  0
 12  9  1  0
 13 10  1  0
 14 11  2  0
 15 14  1  0
  4  5  1  0
 13 15  2  0
M  END
>  <ID>  (1009) 


>  <MOLENAME>  (1009) 
ETHOTOIN

>  <therap>  (1009) 
anticonvulsant

>  <ref>  (1009) 
Neuropharmacology (1980), 19(7), 643-52; Am. J. Med. Sci. (1957), 234, 74-7; Ann. Neurol. (1979), 6(5), 410-4

>  <cas#>  (1009) 
86-35-1

>  <source>  (1009) 
synthetic

>  <status>  (1009) 
USP, INN, BAN, JAN

>  <tradename>  (1009) 
PEGANONE

>  <SMILES>  (1009) 
CCN1C(=O)NC(c2ccccc2)C1=O

>  <standardized_failed>  (1009) 
False

$$$$

     RDKit          2D

 23 26  0  0  0  0  0  0  0  0999 V2000
    4.0083   -2.4625    0.0000 C   0  0  0  0  0  0  0  0  0  0  0  0
    1.8583   -3.6792    0.0000 C   0  0  0  0  0  0  0  0  0  0  0  0
    1.8542   -4.5042    0.0000 C   0  0  0  0  0  0  0  0  0  0  0  0
    4.0000   -3.2875    0.0000 C   0  0  0  0  0  0  0  0  0  0  0  0
    3.2792   -3.6917    0.0000 C   0  0  0  0  0  0  0  0  0  0  0  0
    2.5708   -3.2708    0.0000 C   0  0  0  0  0  0  0  0  0  0  0  0
    3.2833   -4.5125    0.0000 C   0  0  0  0  0  0  0  0  0  0  0  0
    4.7917   -2.2167    0.0000 C   0  0  0  0  0  0  0  0  0  0  0  0
    2.5667   -4.9208    0.0000 C   0  0  0  0  0  0  0  0  0  0  0  0
    1.1458   -4.9167    0.0000 C   0  0  0  0  0  0  0  0  0  0  0  0
    3.3000   -2.0417    0.0000 C   0  0  0  0  0  0  0  0  0  0  0  0
    2.5750   -2.4458    0.0000 C   0  0  0  0  0  0  0  0  0  0  0  0
    4.7792   -3.5500    0.0000 C   0  0  0  0  0  0  0  0  0  0  0  0
    1.1458   -3.2667    0.0000 C   0  0  0  0  0  0  0  0  0  0  0  0
    5.2667   -2.8875    0.0000 C   0  0  0  0  0  0  0  0  0  0  0  0
    5.0542   -1.4375    0.0000 C   0  0  0  0  0  0  0  0  0  0  0  0
    0.4375   -4.5042    0.0000 C   0  0  0  0  0  0  0  0  0  0  0  0
    4.5083   -0.8167    0.0000 O   0  0  0  0  0  0  0  0  0  0  0  0
   -0.2792   -4.9208    0.0000 O   0  0  0  0  0  0  0  0  0  0  0  0
    0.4375   -3.6792    0.0000 C   0  0  0  0  0  0  0  0  0  0  0  0
    4.0042   -1.6375    0.0000 C   0  0  0  0  0  0  0  0  0  0  0  0
    1.8542   -2.8542    0.0000 C   0  0  0  0  0  0  0  0  0  0  0  0
    5.8625   -1.2750    0.0000 C   0  0  0  0  0  0  0  0  0  0  0  0
  2  6  1  0
  3  2  1  0
  4  1  1  0
  5  4  1  0
  6  5  1  0
  7  5  1  0
  8  1  1  0
  9  7  2  0
 10  3  2  0
 11  1  1  0
 12 11  1  0
 13  4  1  0
 14  2  1  0
 15  8  1  0
  8 16  1  1
 17 10  1  0
 18 16  2  0
 19 17  2  0
 20 14  1  0
  1 21  1  1
  2 22  1  6
 23 16  1  0
 15 13  1  0
 12  6  1  0
  9  3  1  0
 17 20  1  0
M  END
>  <ID>  (1010) 


>  <MOLENAME>  (1010) 
DYDROGESTERONE

>  <therap>  (1010) 
progestin

>  <ref>  (1010) 
Drugs Aging (1997), 11(4), 309-32; Steroids (1966), 7(1), 1-10; Int. J. Fertil. (1964), 9, 585-95

>  <cas#>  (1010) 
152-62-5

>  <source>  (1010) 
semisynthetic; NSC-92336

>  <status>  (1010) 
USP, INN, BAN, JAN

>  <tradename>  (1010) 
GYNOREST

>  <SMILES>  (1010) 
CC(=O)[C@H]1CCC2C3C=CC4=CC(=O)CC[C@@]4(C)C3CC[C@@]21C

>  <standardized_failed>  (1010) 
False

$$$$

     RDKit          2D

 14 14  0  0  0  0  0  0  0  0999 V2000
    4.3417   -2.0417    0.0000 P   0  0  0  0  0  0  0  0  0  0  0  0
    4.3417   -2.8667    0.0000 N   0  0  0  0  0  0  0  0  0  0  0  0
    3.6292   -1.6250    0.0000 O   0  0  0  0  0  0  0  0  0  0  0  0
    4.3417   -1.2167    0.0000 O   0  0  0  0  0  0  0  0  0  0  0  0
    5.0542   -1.6292    0.0000 N   0  0  0  0  0  0  0  0  0  0  0  0
    5.0542   -3.2792    0.0000 C   0  0  0  0  0  0  0  0  0  0  0  0
    5.7667   -2.0417    0.0000 C   0  0  0  0  0  0  0  0  0  0  0  0
    3.6292   -3.2750    0.0000 C   0  0  0  0  0  0  0  0  0  0  0  0
    5.7667   -4.5042    0.0000 Cl  0  0  0  0  0  0  0  0  0  0  0  0
    7.1917   -2.0500    0.0000 Cl  0  0  0  0  0  0  0  0  0  0  0  0
    2.9250   -2.8667    0.0000 C   0  0  0  0  0  0  0  0  0  0  0  0
    2.9250   -2.0417    0.0000 C   0  0  0  0  0  0  0  0  0  0  0  0
    5.0542   -4.1000    0.0000 C   0  0  0  0  0  0  0  0  0  0  0  0
    6.4792   -1.6375    0.0000 C   0  0  0  0  0  0  0  0  0  0  0  0
  2  1  1  0
  3  1  1  0
  4  1  2  0
  5  1  1  0
  6  2  1  0
  7  5  1  0
  8  2  1  0
  9 13  1  0
 10 14  1  0
 11 12  1  0
 12  3  1  0
 13  6  1  0
 14  7  1  0
  8 11  1  0
M  END
>  <ID>  (1011) 


>  <MOLENAME>  (1011) 
IFOSFAMIDE

>  <therap>  (1011) 
antineoplastic

>  <ref>  (1011) 
Expert Opin. Drug Metab. Toxicol. (2010), 6(8), 919-938; J. Med. Chem. (1974), 17(11), 1237-9; Chem. Pharm. Bull. (1977), 25(8), 1877-91

>  <cas#>  (1011) 
3778-73-2

>  <source>  (1011) 
synthetic; MJF-9325, Z-4942, NSC-109724

>  <status>  (1011) 
USP, INN, BAN, JAN

>  <tradename>  (1011) 
IFEX

>  <SMILES>  (1011) 
O=P1(NCCCl)OCCCN1CCCl

>  <standardized_failed>  (1011) 
False

$$$$

     RDKit          2D

 11 10  0  0  0  0  0  0  0  0999 V2000
    0.5000   -3.4625    0.0000 C   0  0  0  0  0  0  0  0  0  0  0  0
    3.3542   -3.4625    0.0000 C   0  0  0  0  0  0  0  0  0  0  0  0
    0.5000   -4.2875    0.0000 F   0  0  0  0  0  0  0  0  0  0  0  0
   -0.2208   -3.0500    0.0000 F   0  0  0  0  0  0  0  0  0  0  0  0
   -0.2208   -3.8667    0.0000 F   0  0  0  0  0  0  0  0  0  0  0  0
    3.3542   -4.2875    0.0000 F   0  0  0  0  0  0  0  0  0  0  0  0
    4.0667   -3.0500    0.0000 F   0  0  0  0  0  0  0  0  0  0  0  0
    4.0667   -3.8667    0.0000 F   0  0  0  0  0  0  0  0  0  0  0  0
    1.9250   -3.4542    0.0000 O   0  0  0  0  0  0  0  0  0  0  0  0
    2.6417   -3.0500    0.0000 C   0  0  0  0  0  0  0  0  0  0  0  0
    1.2125   -3.0500    0.0000 C   0  0  0  0  0  0  0  0  0  0  0  0
  2 10  1  0
  3  1  1  0
  4  1  1  0
  5  1  1  0
  6  2  1  0
  7  2  1  0
  8  2  1  0
  9 11  1  0
 10  9  1  0
 11  1  1  0
M  END
>  <ID>  (1012) 


>  <MOLENAME>  (1012) 
FLUROTHYL

>  <therap>  (1012) 
central stimulant, convulsant

>  <ref>  (1012) 
Anesth Analag 95:1611 (2002); 96:1010 (2003)

>  <cas#>  (1012) 
333-36-8

>  <source>  (1012) 
synthetic; SK&F-6539

>  <status>  (1012) 
USP-XXI, INN, BAN

>  <tradename>  (1012) 
INDOKLON

>  <SMILES>  (1012) 
FC(F)(F)COCC(F)(F)F

>  <standardized_failed>  (1012) 
False

$$$$

     RDKit          2D

 35 38  0  0  0  0  0  0  0  0999 V2000
    5.7167   -0.0333    0.0000 N   0  0  0  0  0  0  0  0  0  0  0  0
    4.9042   -0.1875    0.0000 C   0  0  0  0  0  0  0  0  0  0  0  0
    5.8542   -0.8500    0.0000 C   0  0  0  0  0  0  0  0  0  0  0  0
    5.0417   -1.0000    0.0000 C   0  0  0  0  0  0  0  0  0  0  0  0
    9.1000    1.8000    0.0000 N   0  0  0  0  0  0  0  0  0  0  0  0
    9.1625    0.9875    0.0000 C   0  0  0  0  0  0  0  0  0  0  0  0
    6.3417    0.4875    0.0000 C   0  0  0  0  0  0  0  0  0  0  0  0
    9.9542    0.7875    0.0000 N   0  0  0  0  0  0  0  0  0  0  0  0
   10.3917    1.4875    0.0000 N   0  0  0  0  0  0  0  0  0  0  0  0
    9.8667    2.1125    0.0000 N   0  0  0  0  0  0  0  0  0  0  0  0
    6.6292   -1.1375    0.0000 S   0  0  0  0  0  0  0  0  0  0  0  0
    7.1167    0.2000    0.0000 C   0  0  0  0  0  0  0  0  0  0  0  0
    8.4000    2.2375    0.0000 C   0  0  0  0  0  0  0  0  0  0  0  0
    4.5667   -1.6750    0.0000 N   0  0  0  0  0  0  0  0  0  0  0  0
    6.2042    1.3000    0.0000 C   0  0  0  0  0  0  0  0  0  0  0  0
    4.9167   -2.4250    0.0000 C   0  0  0  0  0  0  0  0  0  0  0  0
    8.5292    0.4500    0.0000 S   0  0  0  0  0  0  0  0  0  0  0  0
    7.2625   -0.6125    0.0000 C   0  0  0  0  0  0  0  0  0  0  0  0
    8.4250    3.0625    0.0000 C   0  0  0  0  0  0  0  0  0  0  0  0
    4.2167    0.2875    0.0000 O   0  0  0  0  0  0  0  0  0  0  0  0
    7.7542    0.7375    0.0000 C   0  0  0  0  0  0  0  0  0  0  0  0
    3.6167   -3.0250    0.0000 C   0  0  0  0  0  0  0  0  0  0  0  0
    4.4417   -3.1000    0.0000 C   0  0  0  0  0  0  0  0  0  0  0  0
    5.4292    1.5750    0.0000 O   0  0  0  0  0  0  0  0  0  0  0  0
    5.7417   -2.5000    0.0000 O   0  0  0  0  0  0  0  0  0  0  0  0
    9.1542    3.4500    0.0000 O   0  0  0  0  0  0  0  0  0  0  0  0
    3.1500   -3.7000    0.0000 C   0  0  0  0  0  0  0  0  0  0  0  0
    6.8292    1.8250    0.0000 O   0  0  0  0  0  0  0  0  0  0  0  0
    7.7292    3.5000    0.0000 O   0  0  0  0  0  0  0  0  0  0  0  0
    3.0292   -5.1250    0.0000 N   0  0  0  0  0  0  0  0  0  0  0  0
    3.5000   -4.4458    0.0000 C   0  0  0  0  0  0  0  0  0  0  0  0
    3.2750   -2.2750    0.0000 C   0  0  0  0  0  0  0  0  0  0  0  0
    2.3292   -3.6292    0.0000 C   0  0  0  0  0  0  0  0  0  0  0  0
    2.4542   -2.2042    0.0000 C   0  0  0  0  0  0  0  0  0  0  0  0
    1.9792   -2.8792    0.0000 C   0  0  0  0  0  0  0  0  0  0  0  0
  2  1  1  0
  3  1  1  0
  4  3  1  0
  5  6  1  0
  6 17  1  0
  7  1  1  0
  8  6  2  0
  9  8  1  0
 10  5  1  0
 11  3  1  0
 12  7  2  0
 13  5  1  0
 14  4  1  0
 15  7  1  0
 16 14  1  0
 17 21  1  0
 18 12  1  0
 19 13  1  0
 20  2  2  0
 21 12  1  0
 22 23  1  0
 23 16  1  0
 24 15  2  0
 25 16  2  0
 26 19  2  0
 27 22  2  0
 28 15  1  0
 29 19  1  0
 30 31  1  0
 31 27  1  0
 32 22  1  0
 33 27  1  0
 34 32  2  0
 35 33  2  0
  4  2  1  0
 11 18  1  0
  9 10  2  0
 35 34  1  0
M  END
>  <ID>  (1013) 


>  <MOLENAME>  (1013) 
CEFORANIDE

>  <therap>  (1013) 
antibacterial

>  <ref>  (1013) 
Antimicrob Agents Chemother 10:426 (1976); 19:625, 20:648 (1981)

>  <cas#>  (1013) 
60925-61-3

>  <source>  (1013) 
semisynthetic;BLS-786

>  <status>  (1013) 
USP, INN, BAN

>  <tradename>  (1013) 
PRECEF

>  <SMILES>  (1013) 
NCc1c(CC(=O)NC2C(=O)N3C(C(=O)O)=C(CSc4nnnn4CC(=O)O)CSC23)cccc1

>  <standardized_failed>  (1013) 
False

$$$$

     RDKit          2D

 28 28  0  0  0  0  0  0  0  0999 V2000
    3.6917   -1.4375    0.0000 S   0  0  0  0  0  0  0  0  0  0  0  0
    7.3292   -0.3500    0.0000 N   0  0  0  0  0  0  0  0  0  0  0  0
    6.5417   -1.4375    0.0000 C   0  0  0  0  0  0  0  0  0  0  0  0
    7.3292   -1.6875    0.0000 C   0  0  0  0  0  0  0  0  0  0  0  0
    7.8167   -1.0250    0.0000 C   0  0  0  0  0  0  0  0  0  0  0  0
    6.5417   -0.6125    0.0000 C   0  0  0  0  0  0  0  0  0  0  0  0
    4.1417   -0.8250    0.0000 O   0  0  0  0  0  0  0  0  0  0  0  0
    3.2042   -0.8000    0.0000 O   0  0  0  0  0  0  0  0  0  0  0  0
   10.2542   -1.8042    0.0000 C   0  0  0  0  0  0  0  0  0  0  0  0
   11.4250   -0.4542    0.0000 C   0  0  0  0  0  0  0  0  0  0  0  0
    4.4042   -1.8500    0.0000 C   0  0  0  0  0  0  0  0  0  0  0  0
    5.8292   -1.8500    0.0000 C   0  0  0  0  0  0  0  0  0  0  0  0
    2.9667   -1.8500    0.0000 N   0  0  0  0  0  0  0  0  0  0  0  0
    5.1167   -1.4375    0.0000 C   0  0  0  0  0  0  0  0  0  0  0  0
    7.5792   -2.4750    0.0000 C   0  0  0  0  0  0  0  0  0  0  0  0
    9.6667   -1.4667    0.0000 O   0  0  0  0  0  0  0  0  0  0  0  0
   11.4250    0.2208    0.0000 O   0  0  0  0  0  0  0  0  0  0  0  0
    5.8292   -0.2000    0.0000 C   0  0  0  0  0  0  0  0  0  0  0  0
    8.6417   -3.4292    0.0000 N   0  0  0  0  0  0  0  0  0  0  0  0
   10.8417   -1.4667    0.0000 C   0  0  0  0  0  0  0  0  0  0  0  0
   10.8417   -0.7917    0.0000 C   0  0  0  0  0  0  0  0  0  0  0  0
    8.3917   -2.6500    0.0000 C   0  0  0  0  0  0  0  0  0  0  0  0
    5.1167   -0.6125    0.0000 C   0  0  0  0  0  0  0  0  0  0  0  0
   12.0125   -0.7917    0.0000 O   0  0  0  0  0  0  0  0  0  0  0  0
   10.2542   -2.4792    0.0000 O   0  0  0  0  0  0  0  0  0  0  0  0
    2.7917   -2.6500    0.0000 C   0  0  0  0  0  0  0  0  0  0  0  0
    9.4542   -3.6000    0.0000 C   0  0  0  0  0  0  0  0  0  0  0  0
    8.0917   -4.0417    0.0000 C   0  0  0  0  0  0  0  0  0  0  0  0
  2  6  1  0
  3 12  1  0
  4  3  1  0
  5  4  2  0
  6  3  2  0
  7  1  2  0
  8  1  2  0
 10 21  1  0
 11  1  1  0
 12 14  2  0
 13  1  1  0
 14 11  1  0
 15  4  1  0
 16  9  2  0
 17 10  2  0
 18 23  2  0
 19 22  1  0
 20  9  1  0
 21 20  1  0
 22 15  1  0
 23 14  1  0
 24 10  1  0
 25  9  1  0
 26 13  1  0
 27 19  1  0
 28 19  1  0
 18  6  1  0
  2  5  1  0
M  END
>  <ID>  (1014) 


>  <MOLENAME>  (1014) 
SUMATRIPTAN SUCCINATE

>  <therap>  (1014) 
 5HT agonist

>  <ref>  (1014) 
Lancet 1:1309 (1988); Headache 30 Suppl 2:554 (1990); N Engl J Med 325:316 (1991)

>  <cas#>  (1014) 
103628-48-4

>  <source>  (1014) 
synthetic; GR-43175

>  <status>  (1014) 
USAN, INN, BAN

>  <tradename>  (1014) 
IMITREX

>  <SMILES>  (1014) 
CNS(=O)(=O)Cc1cc2c(cc1)[nH]cc2CCN(C)C

>  <standardized_failed>  (1014) 
False

$$$$

     RDKit          2D

 23 24  0  0  0  0  0  0  0  0999 V2000
    6.3583   -1.2375    0.0000 S   0  0  0  0  0  0  0  0  0  0  0  0
    5.6500   -1.6542    0.0000 C   0  0  0  0  0  0  0  0  0  0  0  0
    5.6500   -2.4792    0.0000 C   0  0  0  0  0  0  0  0  0  0  0  0
    4.8625   -1.3958    0.0000 S   0  0  0  0  0  0  0  0  0  0  0  0
    4.3792   -2.0625    0.0000 C   0  0  0  0  0  0  0  0  0  0  0  0
    3.5542   -2.0542    0.0000 S   0  0  0  0  0  0  0  0  0  0  0  0
    7.0708   -1.6542    0.0000 N   0  0  0  0  0  0  0  0  0  0  0  0
    4.8625   -2.7333    0.0000 C   0  0  0  0  0  0  0  0  0  0  0  0
    6.3583   -2.8875    0.0000 C   0  0  0  0  0  0  0  0  0  0  0  0
    7.0708   -2.4792    0.0000 C   0  0  0  0  0  0  0  0  0  0  0  0
    5.7667   -0.6500    0.0000 O   0  0  0  0  0  0  0  0  0  0  0  0
    6.9417   -0.6500    0.0000 O   0  0  0  0  0  0  0  0  0  0  0  0
    3.3375   -1.2542    0.0000 O   0  0  0  0  0  0  0  0  0  0  0  0
    2.7542   -2.2667    0.0000 O   0  0  0  0  0  0  0  0  0  0  0  0
    3.5500   -2.8792    0.0000 N   0  0  0  0  0  0  0  0  0  0  0  0
    6.3542   -3.7042    0.0000 N   0  0  0  0  0  0  0  0  0  0  0  0
    7.7792   -1.2417    0.0000 C   0  0  0  0  0  0  0  0  0  0  0  0
    8.4917   -1.6542    0.0000 C   0  0  0  0  0  0  0  0  0  0  0  0
    9.9167   -1.6625    0.0000 O   0  0  0  0  0  0  0  0  0  0  0  0
    9.2042   -1.2500    0.0000 C   0  0  0  0  0  0  0  0  0  0  0  0
    7.0667   -4.1167    0.0000 C   0  0  0  0  0  0  0  0  0  0  0  0
    9.9167   -2.4875    0.0000 C   0  0  0  0  0  0  0  0  0  0  0  0
    7.0667   -4.9375    0.0000 C   0  0  0  0  0  0  0  0  0  0  0  0
  2  1  1  0
  3  2  2  0
  4  2  1  0
  5  4  1  0
  6  5  1  0
  7  1  1  0
  8  3  1  0
  9 10  1  0
 10  7  1  0
 11  1  2  0
 12  1  2  0
 13  6  2  0
 14  6  2  0
 15  6  1  0
 16  9  1  0
 17  7  1  0
 18 17  1  0
 19 20  1  0
 20 18  1  0
 21 16  1  0
 22 19  1  0
 23 21  1  0
  9  3  1  0
  8  5  2  0
M  END
>  <ID>  (1015) 


>  <MOLENAME>  (1015) 
BRINZOLAMIDE

>  <therap>  (1015) 
antiglaucoma

>  <ref>  (1015) 
Am J Opthalmol 126:400 (1998)

>  <cas#>  (1015) 
138890-62-7

>  <source>  (1015) 
synthetic; AL-4682

>  <status>  (1015) 
USP, INN, BAN

>  <tradename>  (1015) 
AZOPT

>  <SMILES>  (1015) 
CCNC1CN(CCCOC)S(=O)(=O)c2c1cc(S(N)(=O)=O)s2

>  <standardized_failed>  (1015) 
False

$$$$

     RDKit          2D

 30 32  0  0  0  0  0  0  0  0999 V2000
    3.6750   -1.7625    0.0000 C   0  0  0  0  0  0  0  0  0  0  0  0
    4.3542   -2.1125    0.0000 C   0  0  0  0  0  0  0  0  0  0  0  0
    2.9750   -2.0875    0.0000 C   0  0  0  0  0  0  0  0  0  0  0  0
    3.6917   -0.9958    0.0000 C   0  0  0  0  0  0  0  0  0  0  0  0
    3.7292    0.5292    0.0000 N   0  0  0  0  0  0  0  0  0  0  0  0
    6.8333   -0.7792    0.0000 C   0  0  0  0  0  0  0  0  0  0  0  0
    7.9792   -0.1250    0.0000 C   0  0  0  0  0  0  0  0  0  0  0  0
    7.4042   -1.1125    0.0000 C   0  0  0  0  0  0  0  0  0  0  0  0
    7.9792   -0.7792    0.0000 C   0  0  0  0  0  0  0  0  0  0  0  0
    4.9167   -1.6542    0.0000 N   0  0  0  0  0  0  0  0  0  0  0  0
    4.4708   -2.8292    0.0000 C   0  0  0  0  0  0  0  0  0  0  0  0
    2.8375   -2.8042    0.0000 C   0  0  0  0  0  0  0  0  0  0  0  0
    4.3667   -0.6292    0.0000 C   0  0  0  0  0  0  0  0  0  0  0  0
    3.0417   -0.6042    0.0000 C   0  0  0  0  0  0  0  0  0  0  0  0
    6.2667   -1.1125    0.0000 O   0  0  0  0  0  0  0  0  0  0  0  0
    7.4042    0.2083    0.0000 O   0  0  0  0  0  0  0  0  0  0  0  0
    3.2792   -3.2750    0.0000 C   0  0  0  0  0  0  0  0  0  0  0  0
    4.0292   -3.2792    0.0000 C   0  0  0  0  0  0  0  0  0  0  0  0
    3.0583    0.1625    0.0000 C   0  0  0  0  0  0  0  0  0  0  0  0
    4.3833    0.1292    0.0000 C   0  0  0  0  0  0  0  0  0  0  0  0
    8.5458    0.2083    0.0000 O   0  0  0  0  0  0  0  0  0  0  0  0
    6.8333   -0.1167    0.0000 O   0  0  0  0  0  0  0  0  0  0  0  0
    2.4208   -1.6083    0.0000 C   0  0  0  0  0  0  0  0  0  0  0  0
    3.7500    1.2917    0.0000 C   0  0  0  0  0  0  0  0  0  0  0  0
    5.5958   -1.9083    0.0000 C   0  0  0  0  0  0  0  0  0  0  0  0
    5.1500   -3.0917    0.0000 C   0  0  0  0  0  0  0  0  0  0  0  0
    2.1458   -3.0458    0.0000 C   0  0  0  0  0  0  0  0  0  0  0  0
    5.7167   -2.6292    0.0000 C   0  0  0  0  0  0  0  0  0  0  0  0
    1.7292   -1.8500    0.0000 C   0  0  0  0  0  0  0  0  0  0  0  0
    1.5958   -2.5708    0.0000 C   0  0  0  0  0  0  0  0  0  0  0  0
  2  1  1  0
  3  1  1  0
  4  1  2  0
  5 19  1  0
  7  9  1  0
  8  6  1  0
  9  8  2  0
 10  2  2  0
 11  2  1  0
 12  3  2  0
 13  4  1  0
 14  4  1  0
 15  6  2  0
 16  7  2  0
 17 12  1  0
 18 11  1  0
 19 14  1  0
 20 13  1  0
 21  7  1  0
 22  6  1  0
 23  3  1  0
 24  5  1  0
 25 10  1  0
 26 11  2  0
 27 12  1  0
 28 25  2  0
 29 23  2  0
 30 29  1  0
  5 20  1  0
 18 17  1  0
 27 30  2  0
 28 26  1  0
M  END
>  <ID>  (1016) 


>  <MOLENAME>  (1016) 
AZATADINE MALEATE

>  <therap>  (1016) 
H1-antihistamine

>  <ref>  (1016) 
Agents Actions 4:264 (1974); Jitchuken Zenrincho Kenkyuho 1:173 (1975); NZ Med J 94:79 (1981)

>  <cas#>  (1016) 
3978-86-7

>  <source>  (1016) 
synthetic; SCH-10649

>  <status>  (1016) 
USP, INN, BAN

>  <tradename>  (1016) 
OPTIMINE

>  <SMILES>  (1016) 
CN1CCC(=C2c3c(cccc3)CCc3cccnc23)CC1

>  <standardized_failed>  (1016) 
False

$$$$

     RDKit          2D

 23 23  0  0  0  0  0  0  0  0999 V2000
   -0.9708   -3.4125    0.0000 C   0  0  0  0  0  0  0  0  0  0  0  0
   -0.9708   -2.5875    0.0000 C   0  0  0  0  0  0  0  0  0  0  0  0
   -0.2583   -3.0000    0.0000 C   0  0  0  0  0  0  0  0  0  0  0  0
    8.3000   -4.6417    0.0000 N   0  0  0  0  0  0  0  0  0  0  0  0
    5.4500   -4.6417    0.0000 O   0  0  0  0  0  0  0  0  0  0  0  0
    6.8750   -4.6417    0.0000 C   0  0  0  0  0  0  0  0  0  0  0  0
    4.7375   -4.2292    0.0000 C   0  0  0  0  0  0  0  0  0  0  0  0
    7.5875   -4.2292    0.0000 C   0  0  0  0  0  0  0  0  0  0  0  0
    6.1625   -4.2292    0.0000 C   0  0  0  0  0  0  0  0  0  0  0  0
    3.3083   -3.4000    0.0000 C   0  0  0  0  0  0  0  0  0  0  0  0
    7.1167   -2.9667    0.0000 Cl  0  0  0  0  0  0  0  0  0  0  0  0
    4.7375   -3.4000    0.0000 C   0  0  0  0  0  0  0  0  0  0  0  0
    4.0208   -4.6417    0.0000 C   0  0  0  0  0  0  0  0  0  0  0  0
    4.0208   -2.9875    0.0000 C   0  0  0  0  0  0  0  0  0  0  0  0
    3.3083   -4.2292    0.0000 C   0  0  0  0  0  0  0  0  0  0  0  0
    6.8750   -5.4667    0.0000 O   0  0  0  0  0  0  0  0  0  0  0  0
    0.4542   -3.4042    0.0000 C   0  0  0  0  0  0  0  0  0  0  0  0
    1.1667   -2.9917    0.0000 O   0  0  0  0  0  0  0  0  0  0  0  0
    9.0125   -4.2292    0.0000 C   0  0  0  0  0  0  0  0  0  0  0  0
    2.5917   -2.9917    0.0000 C   0  0  0  0  0  0  0  0  0  0  0  0
    1.8792   -3.4042    0.0000 C   0  0  0  0  0  0  0  0  0  0  0  0
    9.7250   -4.6417    0.0000 C   0  0  0  0  0  0  0  0  0  0  0  0
    9.0125   -3.4042    0.0000 C   0  0  0  0  0  0  0  0  0  0  0  0
  2  1  1  0
  3  1  1  0
  4  8  1  0
  5  7  1  0
  6  9  1  0
  7 13  2  0
  8  6  1  0
  9  5  1  0
 10 20  1  0
 12 14  2  0
 13 15  1  0
 14 10  1  0
 15 10  2  0
 16  6  1  0
 17  3  1  0
 18 17  1  0
 19  4  1  0
 20 21  1  0
 21 18  1  0
 22 19  1  0
 23 19  1  0
  3  2  1  0
 12  7  1  0
M  END
>  <ID>  (1017) 


>  <MOLENAME>  (1017) 
BETAXALOL HYDROCHLORIDE

>  <therap>  (1017) 
antihypertensive, beta-blocker, antianginal

>  <ref>  (1017) 
Br J Clin Pharmacol 9:569 (1980); 11:171 (1981); Therapie 37:75 (1982)

>  <cas#>  (1017) 
63659-19-8

>  <source>  (1017) 
synthetic; SL-75212-10, ALO-1401-02

>  <status>  (1017) 
USP, INN, BAN, JAN

>  <tradename>  (1017) 
BETOPTIC

>  <SMILES>  (1017) 
CC(C)NCC(O)COc1ccc(CCOCC2CC2)cc1

>  <standardized_failed>  (1017) 
False

$$$$

     RDKit          2D

 28 27  0  0  0  0  0  0  0  0999 V2000
   11.8000   -2.2792    0.0000 C   0  0  0  0  0  0  0  0  0  0  0  0
   12.2875   -2.0000    0.0000 C   0  0  0  0  0  0  0  0  0  0  0  0
    4.3375   -2.1250    0.0000 C   0  0  0  0  0  0  0  0  0  0  0  0
   11.3000   -2.0000    0.0000 C   0  0  0  0  0  0  0  0  0  0  0  0
   12.7875   -2.2792    0.0000 C   0  0  0  0  0  0  0  0  0  0  0  0
    5.0500   -2.5375    0.0000 O   0  0  0  0  0  0  0  0  0  0  0  0
    7.1958   -2.1292    0.0000 C   0  0  0  0  0  0  0  0  0  0  0  0
    3.6250   -2.5292    0.0000 N   0  0  0  0  0  0  0  0  0  0  0  0
    7.9042   -2.5375    0.0000 C   0  0  0  0  0  0  0  0  0  0  0  0
    4.3417   -1.3000    0.0000 O   0  0  0  0  0  0  0  0  0  0  0  0
    6.4792   -2.5417    0.0000 C   0  0  0  0  0  0  0  0  0  0  0  0
    8.6167   -2.1250    0.0000 N   0  0  0  0  0  0  0  0  0  0  0  0
    5.7667   -2.1292    0.0000 C   0  0  0  0  0  0  0  0  0  0  0  0
   10.8042   -2.2792    0.0000 O   0  0  0  0  0  0  0  0  0  0  0  0
   12.7875   -2.8625    0.0000 O   0  0  0  0  0  0  0  0  0  0  0  0
   12.2875   -1.4292    0.0000 O   0  0  0  0  0  0  0  0  0  0  0  0
   11.8000   -2.8625    0.0000 O   0  0  0  0  0  0  0  0  0  0  0  0
   13.2792   -2.0000    0.0000 O   0  0  0  0  0  0  0  0  0  0  0  0
   11.3000   -1.4292    0.0000 O   0  0  0  0  0  0  0  0  0  0  0  0
    7.1958   -1.3000    0.0000 C   0  0  0  0  0  0  0  0  0  0  0  0
    6.4792   -0.8875    0.0000 C   0  0  0  0  0  0  0  0  0  0  0  0
    2.9125   -2.1167    0.0000 C   0  0  0  0  0  0  0  0  0  0  0  0
    3.6250   -3.3542    0.0000 C   0  0  0  0  0  0  0  0  0  0  0  0
    5.7667   -1.3000    0.0000 C   0  0  0  0  0  0  0  0  0  0  0  0
    9.3292   -2.5375    0.0000 C   0  0  0  0  0  0  0  0  0  0  0  0
    8.6167   -1.3000    0.0000 C   0  0  0  0  0  0  0  0  0  0  0  0
    7.9042   -3.3625    0.0000 C   0  0  0  0  0  0  0  0  0  0  0  0
    2.9167   -1.2917    0.0000 C   0  0  0  0  0  0  0  0  0  0  0  0
  2  1  1  0
  4  1  1  0
  5  2  1  0
  6  3  1  0
  7 11  2  0
  8  3  1  0
  9  7  1  0
 10  3  2  0
 11 13  1  0
 12  9  1  0
 13  6  1  0
 14  4  2  0
 15  5  2  0
  2 16  1  1
  1 17  1  1
 18  5  1  0
 19  4  1  0
 20 21  2  0
 21 24  1  0
 22  8  1  0
 23  8  1  0
 24 13  2  0
 25 12  1  0
 26 12  1  0
  9 27  1  1
 28 22  1  0
 20  7  1  0
M  END
>  <ID>  (1018) 


>  <MOLENAME>  (1018) 
RIVASTIGMINE TARTRATE

>  <therap>  (1018) 
acetylcholinesterase inhibitor

>  <ref>  (1018) 
Prog Brain Res 98:431 (1993); Br Med J 318:633 (1999)

>  <cas#>  (1018) 
123441-03-2

>  <source>  (1018) 
synthetic; SDZ-ENA-713; SDZ-212-713; ENA-713

>  <status>  (1018) 
USAN, INN, BAN

>  <tradename>  (1018) 
EXCELON

>  <SMILES>  (1018) 
CCN(C)C(=O)Oc1cccc([C@H](C)N(C)C)c1

>  <standardized_failed>  (1018) 
False

$$$$

     RDKit          2D

 12 12  0  0  0  0  0  0  0  0999 V2000
   -2.2458    1.2083    0.0000 C   0  0  0  0  0  0  0  0  0  0  0  0
   -2.9583    0.7958    0.0000 C   0  0  0  0  0  0  0  0  0  0  0  0
   -2.2500    2.0333    0.0000 O   0  0  0  0  0  0  0  0  0  0  0  0
   -2.9583   -0.0292    0.0000 C   0  0  0  0  0  0  0  0  0  0  0  0
   -3.6750    1.2083    0.0000 C   0  0  0  0  0  0  0  0  0  0  0  0
   -1.5333    0.8000    0.0000 O   0  0  0  0  0  0  0  0  0  0  0  0
   -4.3958   -0.0292    0.0000 C   0  0  0  0  0  0  0  0  0  0  0  0
   -4.3958    0.7875    0.0000 C   0  0  0  0  0  0  0  0  0  0  0  0
   -3.6750   -0.4500    0.0000 C   0  0  0  0  0  0  0  0  0  0  0  0
   -5.1083   -0.4500    0.0000 O   0  0  0  0  0  0  0  0  0  0  0  0
   -1.5333   -0.0250    0.0000 C   0  0  0  0  0  0  0  0  0  0  0  0
   -0.8125   -0.4375    0.0000 C   0  0  0  0  0  0  0  0  0  0  0  0
  2  1  1  0
  3  1  2  0
  4  2  2  0
  5  2  1  0
  6  1  1  0
  7  8  1  0
  8  5  2  0
  9  4  1  0
 10  7  1  0
 11  6  1  0
 12 11  1  0
  9  7  2  0
M  END
>  <ID>  (1019) 


>  <MOLENAME>  (1019) 
ETHYL PARABEN

>  <therap>  (1019) 
antifungal

>  <ref>  (1019) 
J. Soc. Cosmet. Chem. (1979), 30(1), 25-39; Nature (1973), 241(5388), 321-5; Chim. Ther. (1972), 7(6), 427-33

>  <cas#>  (1019) 
120-47-8

>  <source>  (1019) 
synthetic

>  <status>  (1019) 
USAN, NF, JAN

>  <tradename>  (1019) 
nan

>  <SMILES>  (1019) 
CCOC(=O)c1ccc(O)cc1

>  <standardized_failed>  (1019) 
False

$$$$

     RDKit          2D

114123  0  0  0  0  0  0  0  0999 V2000
    4.5375   -4.3917    0.0000 C   0  0  0  0  0  0  0  0  0  0  0  0
    4.9542   -5.1042    0.0000 C   0  0  0  0  0  0  0  0  0  0  0  0
    0.5292  -10.3417    0.0000 C   0  0  0  0  0  0  0  0  0  0  0  0
    3.5292   -4.3792    0.0000 C   0  0  0  0  0  0  0  0  0  0  0  0
    5.7792   -5.0917    0.0000 N   0  0  0  0  0  0  0  0  0  0  0  0
    2.5417   -9.6292    0.0000 C   0  0  0  0  0  0  0  0  0  0  0  0
    2.1917   -4.2542    0.0000 C   0  0  0  0  0  0  0  0  0  0  0  0
    1.4167  -10.3625    0.0000 C   0  0  0  0  0  0  0  0  0  0  0  0
    4.9500   -5.9292    0.0000 C   0  0  0  0  0  0  0  0  0  0  0  0
    4.3167   -3.2417    0.0000 N   0  0  0  0  0  0  0  0  0  0  0  0
    2.8250   -4.8000    0.0000 N   0  0  0  0  0  0  0  0  0  0  0  0
    1.7167   -9.5917    0.0000 N   0  0  0  0  0  0  0  0  0  0  0  0
    4.5292   -7.2042    0.0000 C   0  0  0  0  0  0  0  0  0  0  0  0
    7.9542   -3.9417    0.0000 C   0  0  0  0  0  0  0  0  0  0  0  0
    4.2792   -6.4167    0.0000 N   0  0  0  0  0  0  0  0  0  0  0  0
   14.0542   -3.0167    0.0000 C   0  0  0  0  0  0  0  0  0  0  0  0
   -0.8333  -10.3667    0.0000 N   0  0  0  0  0  0  0  0  0  0  0  0
    4.3750   -7.9792    0.0000 C   0  0  0  0  0  0  0  0  0  0  0  0
    7.1667   -3.6917    0.0000 N   0  0  0  0  0  0  0  0  0  0  0  0
    3.6417   -8.1792    0.0000 N   0  0  0  0  0  0  0  0  0  0  0  0
    0.9292   -4.9542    0.0000 N   0  0  0  0  0  0  0  0  0  0  0  0
   -1.0708   -7.9417    0.0000 N   0  0  0  0  0  0  0  0  0  0  0  0
   14.4625   -3.7292    0.0000 N   0  0  0  0  0  0  0  0  0  0  0  0
    0.1042   -4.9750    0.0000 C   0  0  0  0  0  0  0  0  0  0  0  0
   -0.0583   -5.8000    0.0000 C   0  0  0  0  0  0  0  0  0  0  0  0
   -1.7375   -7.4542    0.0000 C   0  0  0  0  0  0  0  0  0  0  0  0
   12.0000   -2.2917    0.0000 N   0  0  0  0  0  0  0  0  0  0  0  0
    3.6292   -9.1292    0.0000 C   0  0  0  0  0  0  0  0  0  0  0  0
    1.3292   -4.2292    0.0000 C   0  0  0  0  0  0  0  0  0  0  0  0
    6.6917   -4.3667    0.0000 C   0  0  0  0  0  0  0  0  0  0  0  0
   14.4667   -2.3042    0.0000 C   0  0  0  0  0  0  0  0  0  0  0  0
   10.7625   -1.5750    0.0000 C   0  0  0  0  0  0  0  0  0  0  0  0
   -1.0250   -5.9167    0.0000 N   0  0  0  0  0  0  0  0  0  0  0  0
   -0.8375   -9.3917    0.0000 C   0  0  0  0  0  0  0  0  0  0  0  0
    7.9667   -0.8292    0.0000 N   0  0  0  0  0  0  0  0  0  0  0  0
   -1.3250   -8.7292    0.0000 C   0  0  0  0  0  0  0  0  0  0  0  0
    0.3167  -11.1375    0.0000 C   0  0  0  0  0  0  0  0  0  0  0  0
   10.3542   -0.8542    0.0000 N   0  0  0  0  0  0  0  0  0  0  0  0
    6.2667   -1.0417    0.0000 C   0  0  0  0  0  0  0  0  0  0  0  0
    4.6792   -2.5000    0.0000 C   0  0  0  0  0  0  0  0  0  0  0  0
    6.2500   -1.9917    0.0000 N   0  0  0  0  0  0  0  0  0  0  0  0
   15.2792   -3.7292    0.0000 C   0  0  0  0  0  0  0  0  0  0  0  0
    8.5125   -3.6792    0.0000 C   0  0  0  0  0  0  0  0  0  0  0  0
   15.6875   -4.4417    0.0000 C   0  0  0  0  0  0  0  0  0  0  0  0
   -1.7375   -6.6292    0.0000 C   0  0  0  0  0  0  0  0  0  0  0  0
    7.1042   -0.4417    0.0000 C   0  0  0  0  0  0  0  0  0  0  0  0
    8.8750   -0.3792    0.0000 C   0  0  0  0  0  0  0  0  0  0  0  0
    6.1792   -4.3750    0.0000 C   0  0  0  0  0  0  0  0  0  0  0  0
   13.2292   -3.0042    0.0000 C   0  0  0  0  0  0  0  0  0  0  0  0
   10.9542   -7.7667    0.0000 O   0  0  0  0  0  0  0  0  0  0  0  0
   15.2917   -2.3042    0.0000 C   0  0  0  0  0  0  0  0  0  0  0  0
    3.3417   -3.5750    0.0000 S   0  0  0  0  0  0  0  0  0  0  0  0
    2.0625  -10.8792    0.0000 S   0  0  0  0  0  0  0  0  0  0  0  0
    5.3667   -7.2000    0.0000 S   0  0  0  0  0  0  0  0  0  0  0  0
   12.8250   -2.2917    0.0000 C   0  0  0  0  0  0  0  0  0  0  0  0
   11.5875   -1.5792    0.0000 C   0  0  0  0  0  0  0  0  0  0  0  0
   10.4375   -3.9625    0.0000 C   0  0  0  0  0  0  0  0  0  0  0  0
    7.1875   -5.0292    0.0000 S   0  0  0  0  0  0  0  0  0  0  0  0
   14.0667   -1.5875    0.0000 C   0  0  0  0  0  0  0  0  0  0  0  0
    9.8417   -3.5792    0.0000 C   0  0  0  0  0  0  0  0  0  0  0  0
   -2.4000   -7.9417    0.0000 S   0  0  0  0  0  0  0  0  0  0  0  0
    9.1292   -3.9917    0.0000 N   0  0  0  0  0  0  0  0  0  0  0  0
    2.5250   -3.5000    0.0000 C   0  0  0  0  0  0  0  0  0  0  0  0
    2.7542  -10.4292    0.0000 C   0  0  0  0  0  0  0  0  0  0  0  0
   10.4292   -4.6750    0.0000 N   0  0  0  0  0  0  0  0  0  0  0  0
    7.9667   -4.7667    0.0000 C   0  0  0  0  0  0  0  0  0  0  0  0
    5.6167   -6.4125    0.0000 C   0  0  0  0  0  0  0  0  0  0  0  0
   11.1417   -5.0792    0.0000 C   0  0  0  0  0  0  0  0  0  0  0  0
   15.7042   -3.0167    0.0000 C   0  0  0  0  0  0  0  0  0  0  0  0
    5.1042   -8.4375    0.0000 C   0  0  0  0  0  0  0  0  0  0  0  0
   13.2417   -1.5792    0.0000 C   0  0  0  0  0  0  0  0  0  0  0  0
    4.9292   -3.6750    0.0000 C   0  0  0  0  0  0  0  0  0  0  0  0
   11.1417   -5.9042    0.0000 C   0  0  0  0  0  0  0  0  0  0  0  0
    5.4292   -2.5042    0.0000 C   0  0  0  0  0  0  0  0  0  0  0  0
    9.5542   -0.8667    0.0000 C   0  0  0  0  0  0  0  0  0  0  0  0
   -2.1500   -8.7292    0.0000 C   0  0  0  0  0  0  0  0  0  0  0  0
    0.4417   -6.3917    0.0000 O   0  0  0  0  0  0  0  0  0  0  0  0
   10.2667   -2.3000    0.0000 O   0  0  0  0  0  0  0  0  0  0  0  0
    5.7625   -3.6667    0.0000 C   0  0  0  0  0  0  0  0  0  0  0  0
    0.8917   -3.5292    0.0000 O   0  0  0  0  0  0  0  0  0  0  0  0
    4.2792   -9.4542    0.0000 O   0  0  0  0  0  0  0  0  0  0  0  0
   -0.0875   -9.1042    0.0000 O   0  0  0  0  0  0  0  0  0  0  0  0
    5.5625   -0.5167    0.0000 O   0  0  0  0  0  0  0  0  0  0  0  0
    4.2417   -1.8792    0.0000 O   0  0  0  0  0  0  0  0  0  0  0  0
   16.5792   -4.5792    0.0000 O   0  0  0  0  0  0  0  0  0  0  0  0
    8.8667    0.4458    0.0000 O   0  0  0  0  0  0  0  0  0  0  0  0
    8.5250   -2.9250    0.0000 O   0  0  0  0  0  0  0  0  0  0  0  0
   11.1500   -3.5500    0.0000 O   0  0  0  0  0  0  0  0  0  0  0  0
   -2.4500   -6.2167    0.0000 C   0  0  0  0  0  0  0  0  0  0  0  0
   10.4292   -6.3167    0.0000 O   0  0  0  0  0  0  0  0  0  0  0  0
   -0.4500   -4.2417    0.0000 C   0  0  0  0  0  0  0  0  0  0  0  0
    7.1250    0.5083    0.0000 C   0  0  0  0  0  0  0  0  0  0  0  0
    0.9042  -11.7167    0.0000 C   0  0  0  0  0  0  0  0  0  0  0  0
    9.8375   -2.8292    0.0000 C   0  0  0  0  0  0  0  0  0  0  0  0
   11.8542   -4.6667    0.0000 C   0  0  0  0  0  0  0  0  0  0  0  0
   15.7125   -1.5917    0.0000 C   0  0  0  0  0  0  0  0  0  0  0  0
   -0.4833  -11.3500    0.0000 O   0  0  0  0  0  0  0  0  0  0  0  0
   11.8625   -6.3167    0.0000 N   0  0  0  0  0  0  0  0  0  0  0  0
   12.0042   -0.8667    0.0000 C   0  0  0  0  0  0  0  0  0  0  0  0
   12.8167   -3.7167    0.0000 O   0  0  0  0  0  0  0  0  0  0  0  0
    0.1042  -11.9292    0.0000 C   0  0  0  0  0  0  0  0  0  0  0  0
    1.7000  -11.5042    0.0000 O   0  0  0  0  0  0  0  0  0  0  0  0
   -0.0583   -3.5167    0.0000 O   0  0  0  0  0  0  0  0  0  0  0  0
   15.3042   -0.8750    0.0000 O   0  0  0  0  0  0  0  0  0  0  0  0
    5.0917   -9.2000    0.0000 C   0  0  0  0  0  0  0  0  0  0  0  0
    5.7542   -3.2667    0.0000 C   0  0  0  0  0  0  0  0  0  0  0  0
    9.3667   -1.6792    0.0000 C   0  0  0  0  0  0  0  0  0  0  0  0
   -3.1708   -6.6292    0.0000 C   0  0  0  0  0  0  0  0  0  0  0  0
   11.5917   -0.1500    0.0000 C   0  0  0  0  0  0  0  0  0  0  0  0
    0.6917  -12.5167    0.0000 C   0  0  0  0  0  0  0  0  0  0  0  0
   -1.2750   -4.2542    0.0000 C   0  0  0  0  0  0  0  0  0  0  0  0
   16.5375   -1.5917    0.0000 C   0  0  0  0  0  0  0  0  0  0  0  0
   12.8292   -0.8667    0.0000 C   0  0  0  0  0  0  0  0  0  0  0  0
   12.0042    0.5625    0.0000 C   0  0  0  0  0  0  0  0  0  0  0  0
  2  1  1  0
  3  8  1  0
  4  1  1  0
  5  2  1  0
  6 28  1  0
  7 11  1  0
  8 12  2  0
  9  2  1  0
 10  1  1  0
 11  4  2  0
 12  6  1  0
 13 15  2  0
 14 19  1  0
 15  9  1  0
 16 23  1  0
 17  3  1  0
 18 13  1  0
 19 30  2  0
 20 18  1  0
 21 29  1  0
 22 26  2  0
 23 42  2  0
 24 21  1  0
 25 24  1  0
 26 45  1  0
 27 56  1  0
 28 20  1  0
 29  7  1  0
 30 48  1  0
 31 51  1  0
 32 38  1  0
 33 25  1  0
 34 36  1  0
 35 46  1  0
 36 22  1  0
 37  3  1  0
 38 75  1  0
 39 41  1  0
 40 10  1  0
 41 74  1  0
 42 44  1  0
 43 14  1  0
 44 50  1  0
 45 33  1  0
 46 39  1  0
 47 35  1  0
 48 79  1  0
 49 16  1  0
 50 70  1  0
 51 69  2  0
 52  4  1  0
 53 64  1  0
 54 67  1  0
 55 49  1  0
 56 32  1  0
 57 60  1  0
 58 30  1  0
 59 31  1  0
 60 62  1  0
 61 26  1  0
 62 43  1  0
 63 52  1  0
 64  6  2  0
 65 57  1  0
 66 58  1  0
 67  9  2  0
 68 65  1  0
 69 42  1  0
 70 18  1  0
 71 59  2  0
 72  1  1  0
 73 68  1  0
 74 40  1  0
 75 47  1  0
 76 61  1  0
 77 25  2  0
 78 32  2  0
 79 72  1  0
 80 29  2  0
 81 28  2  0
 82 34  2  0
 83 39  2  0
 84 40  2  0
 85 44  2  0
 86 47  2  0
 87 43  2  0
 88 57  2  0
 89 45  2  0
 90 73  2  0
 91 24  1  0
 92 46  2  0
 93 37  1  0
 94 60  2  0
 95 68  2  0
 96 51  1  0
 97 37  1  0
 98 73  1  0
 99 56  1  0
100 49  1  0
101 37  1  0
102 93  1  0
103 91  1  0
104 96  1  0
105 70  1  0
106 74  1  0
107 75  1  0
108 89  1  0
109 99  1  0
110 93  1  0
111 91  1  0
112 96  1  0
113 99  1  0
114109  1  0
 48  5  2  0
 63  7  2  0
 13 54  1  0
 14 66  2  0
 53  8  1  0
 36 76  1  0
 31 16  2  0
 34 17  1  0
 27 55  1  0
 71 55  1  0
M  END
>  <ID>  (1020) 


>  <MOLENAME>  (1020) 
THIOSTREPTON

>  <therap>  (1020) 
antibacterial

>  <ref>  (1020) 
Nature 225:233 (1970); J Antibiot 36:799, 814, 831(1983); 42:1649 (1989)

>  <cas#>  (1020) 
1393-48-2

>  <source>  (1020) 
Streptomyces aureus

>  <status>  (1020) 
USP

>  <tradename>  (1020) 
BRYAMYCIN

>  <SMILES>  (1020) 
C=C(NC(=O)C(=C)NC(=O)c1csc(C2=NC3c4csc(n4)C4NC(=O)c5csc(n5)C(C(C)(O)C(C)O)NC(=O)C5CSC(=N5)/C(=C\C)NC(=O)C(C(C)O)NC(=O)c5csc(n5)C3(CC2)NC(=O)C(C)NC(=O)C(=C)NC(=O)C(C)NC(=O)C(C(C)CC)NC2C=Cc3c(nc(cc3C(C)O)C(=O)OC4C)C2O)n1)C(N)=O

>  <standardized_failed>  (1020) 
False

$$$$

     RDKit          2D

 17 17  0  0  0  0  0  0  0  0999 V2000
    1.7667   -1.4417    0.0000 C   0  0  0  0  0  0  0  0  0  0  0  0
    2.5167   -1.4417    0.0000 C   0  0  0  0  0  0  0  0  0  0  0  0
    2.8917   -2.0875    0.0000 C   0  0  0  0  0  0  0  0  0  0  0  0
    1.3917   -2.0875    0.0000 C   0  0  0  0  0  0  0  0  0  0  0  0
    4.7667   -2.7292    0.0000 N   0  0  0  0  0  0  0  0  0  0  0  0
    2.5167   -2.7375    0.0000 C   0  0  0  0  0  0  0  0  0  0  0  0
    5.1417   -3.3792    0.0000 C   0  0  0  0  0  0  0  0  0  0  0  0
    1.7667   -2.7375    0.0000 C   0  0  0  0  0  0  0  0  0  0  0  0
    4.0167   -2.7292    0.0000 C   0  0  0  0  0  0  0  0  0  0  0  0
    3.6417   -2.0875    0.0000 C   0  0  0  0  0  0  0  0  0  0  0  0
    0.6417   -2.0875    0.0000 O   0  0  0  0  0  0  0  0  0  0  0  0
    1.3875   -0.7875    0.0000 C   0  0  0  0  0  0  0  0  0  0  0  0
    4.0167   -1.4375    0.0000 O   0  0  0  0  0  0  0  0  0  0  0  0
    1.7625   -0.1375    0.0000 O   0  0  0  0  0  0  0  0  0  0  0  0
    4.4875   -3.7542    0.0000 C   0  0  0  0  0  0  0  0  0  0  0  0
    5.5167   -4.0292    0.0000 C   0  0  0  0  0  0  0  0  0  0  0  0
    5.7917   -3.0000    0.0000 C   0  0  0  0  0  0  0  0  0  0  0  0
  2  1  2  0
  3  2  1  0
  4  1  1  0
  5  9  1  0
  6  8  1  0
  7  5  1  0
  8  4  2  0
  9 10  1  0
 10  3  1  0
 11  4  1  0
 12  1  1  0
 13 10  1  0
 14 12  1  0
 15  7  1  0
 16  7  1  0
 17  7  1  0
  6  3  2  0
M  END
>  <ID>  (1021) 


>  <MOLENAME>  (1021) 
ALBUTEROL

>  <therap>  (1021) 
bronchodilator, tocolytic

>  <ref>  (1021) 
Drugs 38:77 (1989); Arch Toxicol 68:213 (1994); Br Med J 320:1368 (2000)

>  <cas#>  (1021) 
18559-94-9

>  <source>  (1021) 
synthetic; salbutamol

>  <status>  (1021) 
USP, INN, BAN

>  <tradename>  (1021) 
PROVENTIL

>  <SMILES>  (1021) 
CC(C)(C)NCC(O)c1ccc(O)c(CO)c1

>  <standardized_failed>  (1021) 
False

$$$$

     RDKit          2D

 19 18  0  0  0  0  0  0  0  0999 V2000
   -2.7458   -2.2167    0.0000 S   0  0  0  0  0  0  0  0  0  0  0  0
   -2.3333   -1.5042    0.0000 N   0  0  0  0  0  0  0  0  0  0  0  0
   -2.9583   -3.0125    0.0000 O   0  0  0  0  0  0  0  0  0  0  0  0
   -2.0333   -2.6292    0.0000 O   0  0  0  0  0  0  0  0  0  0  0  0
    0.1375   -1.5000    0.0000 C   0  0  0  0  0  0  0  0  0  0  0  0
    2.1875   -0.7875    0.0000 N   0  0  0  0  0  0  0  0  0  0  0  0
    1.3667   -0.7875    0.0000 C   0  0  0  0  0  0  0  0  0  0  0  0
   -0.2750   -2.2125    0.0000 C   0  0  0  0  0  0  0  0  0  0  0  0
   -0.2750   -0.7875    0.0000 C   0  0  0  0  0  0  0  0  0  0  0  0
    0.9542   -1.5000    0.0000 C   0  0  0  0  0  0  0  0  0  0  0  0
   -1.5083   -1.5042    0.0000 C   0  0  0  0  0  0  0  0  0  0  0  0
   -3.5625   -2.2167    0.0000 C   0  0  0  0  0  0  0  0  0  0  0  0
   -1.1000   -0.7917    0.0000 C   0  0  0  0  0  0  0  0  0  0  0  0
   -1.1000   -2.2125    0.0000 C   0  0  0  0  0  0  0  0  0  0  0  0
    3.7042   -1.5292    0.0000 Cl  0  0  0  0  0  0  0  0  0  0  0  0
    1.3708   -2.2125    0.0000 O   0  0  0  0  0  0  0  0  0  0  0  0
    2.5917   -0.0750    0.0000 C   0  0  0  0  0  0  0  0  0  0  0  0
    2.1792    0.6417    0.0000 C   0  0  0  0  0  0  0  0  0  0  0  0
    3.4167   -0.0750    0.0000 C   0  0  0  0  0  0  0  0  0  0  0  0
  2  1  1  0
  3  1  2  0
  4  1  2  0
  5  8  2  0
  6  7  1  0
  7 10  1  0
  8 14  1  0
  9 13  2  0
 10  5  1  0
 11  2  1  0
 12  1  1  0
 13 11  1  0
 14 11  2  0
 16 10  1  0
 17  6  1  0
 18 17  1  0
 19 17  1  0
  9  5  1  0
M  END
>  <ID>  (1022) 


>  <MOLENAME>  (1022) 
SOTALOL HYDROCHLORIDE

>  <therap>  (1022) 
beta-adrenergic agonist

>  <ref>  (1022) 
Nature 203:1283 (1964); J Pharmacol Exp Ther 149:161 (1965); Drugs 34:311 (1987); N Eng J Med 331:31 (1994)

>  <cas#>  (1022) 
959-24-0

>  <source>  (1022) 
synthetic; MJ-1999

>  <status>  (1022) 
USP

>  <tradename>  (1022) 
BETAPACE

>  <SMILES>  (1022) 
CC(C)NCC(O)c1ccc(NS(C)(=O)=O)cc1

>  <standardized_failed>  (1022) 
False

$$$$

     RDKit          2D

 31 33  0  0  0  0  0  0  0  0999 V2000
    8.4667   -2.4250    0.0000 C   0  0  0  0  0  0  0  0  0  0  0  0
    8.4667   -1.6750    0.0000 C   0  0  0  0  0  0  0  0  0  0  0  0
    7.8292   -2.8042    0.0000 C   0  0  0  0  0  0  0  0  0  0  0  0
    7.1792   -2.4292    0.0000 C   0  0  0  0  0  0  0  0  0  0  0  0
    7.1792   -1.6792    0.0000 C   0  0  0  0  0  0  0  0  0  0  0  0
    7.8292   -1.3042    0.0000 C   0  0  0  0  0  0  0  0  0  0  0  0
    9.1792   -2.6542    0.0000 C   0  0  0  0  0  0  0  0  0  0  0  0
    9.6167   -2.0625    0.0000 O   0  0  0  0  0  0  0  0  0  0  0  0
    9.1792   -1.4500    0.0000 C   0  0  0  0  0  0  0  0  0  0  0  0
    6.5167   -2.8042    0.0000 C   0  0  0  0  0  0  0  0  0  0  0  0
    5.8667   -2.4292    0.0000 C   0  0  0  0  0  0  0  0  0  0  0  0
    0.7000   -2.4625    0.0000 N   0  0  0  0  0  0  0  0  0  0  0  0
    3.2667   -2.4292    0.0000 C   0  0  0  0  0  0  0  0  0  0  0  0
    9.4167   -3.3750    0.0000 O   0  0  0  0  0  0  0  0  0  0  0  0
    5.2167   -2.8125    0.0000 C   0  0  0  0  0  0  0  0  0  0  0  0
    3.2667   -1.6792    0.0000 O   0  0  0  0  0  0  0  0  0  0  0  0
    7.8292   -3.5542    0.0000 O   0  0  0  0  0  0  0  0  0  0  0  0
   -0.5875   -1.7292    0.0000 O   0  0  0  0  0  0  0  0  0  0  0  0
    6.5167   -1.3000    0.0000 O   0  0  0  0  0  0  0  0  0  0  0  0
    3.9167   -2.8125    0.0000 C   0  0  0  0  0  0  0  0  0  0  0  0
    4.5667   -2.4292    0.0000 C   0  0  0  0  0  0  0  0  0  0  0  0
    2.6292   -2.8125    0.0000 O   0  0  0  0  0  0  0  0  0  0  0  0
    7.8292   -0.5500    0.0000 C   0  0  0  0  0  0  0  0  0  0  0  0
    1.3417   -2.8250    0.0000 C   0  0  0  0  0  0  0  0  0  0  0  0
    1.9792   -2.4500    0.0000 C   0  0  0  0  0  0  0  0  0  0  0  0
    0.6917   -1.7250    0.0000 C   0  0  0  0  0  0  0  0  0  0  0  0
    0.0625   -2.8375    0.0000 C   0  0  0  0  0  0  0  0  0  0  0  0
    0.0500   -1.3542    0.0000 C   0  0  0  0  0  0  0  0  0  0  0  0
   -0.5833   -2.4750    0.0000 C   0  0  0  0  0  0  0  0  0  0  0  0
    5.2167   -3.5542    0.0000 C   0  0  0  0  0  0  0  0  0  0  0  0
    5.8667   -1.6750    0.0000 C   0  0  0  0  0  0  0  0  0  0  0  0
  2  1  1  0
  3  1  2  0
  4  3  1  0
  5  4  2  0
  6  2  2  0
  7  1  1  0
  8  7  1  0
  9  2  1  0
 10  4  1  0
 11 10  1  0
 12 24  1  0
 13 20  1  0
 14  7  2  0
 15 11  2  0
 16 13  2  0
 17  3  1  0
 18 29  1  0
 19  5  1  0
 20 21  1  0
 21 15  1  0
 22 13  1  0
 23  6  1  0
 24 25  1  0
 25 22  1  0
 26 12  1  0
 27 12  1  0
 28 26  1  0
 29 27  1  0
 30 15  1  0
 31 19  1  0
  9  8  1  0
  5  6  1  0
 28 18  1  0
M  END
>  <ID>  (1023) 


>  <MOLENAME>  (1023) 
MYCOPHENOLATE MOFETIL

>  <therap>  (1023) 
immune suppressant, antineoplastic, antiviral

>  <ref>  (1023) 
Clin J Am Soc Nephrol 2:968 (2007); Transplantation 87:785 (2009)

>  <cas#>  (1023) 
115007-34-6

>  <source>  (1023) 
semisynthtic; RS-61443

>  <status>  (1023) 
USAN

>  <tradename>  (1023) 
CELLCEPT

>  <SMILES>  (1023) 
COc1c(C/C=C(\C)CCC(=O)OCCN2CCOCC2)c(O)c2C(=O)OCc2c1C

>  <standardized_failed>  (1023) 
False

$$$$

     RDKit          2D

 35 37  0  0  0  0  0  0  0  0999 V2000
    6.4292   -4.6375    0.0000 N   0  0  0  0  0  0  0  0  0  0  0  0
    5.6042   -4.6500    0.0000 C   0  0  0  0  0  0  0  0  0  0  0  0
    5.6167   -5.4750    0.0000 C   0  0  0  0  0  0  0  0  0  0  0  0
    6.4375   -5.4667    0.0000 C   0  0  0  0  0  0  0  0  0  0  0  0
    2.8667   -6.2500    0.0000 C   0  0  0  0  0  0  0  0  0  0  0  0
    7.1417   -4.2125    0.0000 C   0  0  0  0  0  0  0  0  0  0  0  0
    3.6667   -6.4542    0.0000 C   0  0  0  0  0  0  0  0  0  0  0  0
    2.2292   -6.7792    0.0000 N   0  0  0  0  0  0  0  0  0  0  0  0
    5.0417   -6.0625    0.0000 N   0  0  0  0  0  0  0  0  0  0  0  0
    4.2417   -5.8625    0.0000 C   0  0  0  0  0  0  0  0  0  0  0  0
    1.5292   -6.3417    0.0000 C   0  0  0  0  0  0  0  0  0  0  0  0
    2.5542   -5.4875    0.0000 C   0  0  0  0  0  0  0  0  0  0  0  0
    1.7375   -5.5417    0.0000 S   0  0  0  0  0  0  0  0  0  0  0  0
    7.1292   -3.3875    0.0000 C   0  0  0  0  0  0  0  0  0  0  0  0
    9.9833   -2.5500    0.0000 C   0  0  0  0  0  0  0  0  0  0  0  0
   10.6958   -2.9667    0.0000 C   0  0  0  0  0  0  0  0  0  0  0  0
    7.1542   -5.8750    0.0000 S   0  0  0  0  0  0  0  0  0  0  0  0
    7.8625   -4.6250    0.0000 C   0  0  0  0  0  0  0  0  0  0  0  0
    3.8917   -7.2500    0.0000 N   0  0  0  0  0  0  0  0  0  0  0  0
    5.0417   -4.0375    0.0000 O   0  0  0  0  0  0  0  0  0  0  0  0
    9.2667   -2.9625    0.0000 S   0  0  0  0  0  0  0  0  0  0  0  0
   10.7750   -3.7875    0.0000 O   0  0  0  0  0  0  0  0  0  0  0  0
    4.0167   -5.0667    0.0000 O   0  0  0  0  0  0  0  0  0  0  0  0
    7.8417   -2.9667    0.0000 O   0  0  0  0  0  0  0  0  0  0  0  0
    8.5583   -3.3792    0.0000 C   0  0  0  0  0  0  0  0  0  0  0  0
   11.4500   -2.6375    0.0000 C   0  0  0  0  0  0  0  0  0  0  0  0
    6.4125   -2.9875    0.0000 O   0  0  0  0  0  0  0  0  0  0  0  0
    9.9875   -1.7250    0.0000 O   0  0  0  0  0  0  0  0  0  0  0  0
   11.5833   -3.9625    0.0000 C   0  0  0  0  0  0  0  0  0  0  0  0
   11.9958   -3.2500    0.0000 C   0  0  0  0  0  0  0  0  0  0  0  0
    0.7292   -6.5542    0.0000 N   0  0  0  0  0  0  0  0  0  0  0  0
    7.8667   -5.4500    0.0000 C   0  0  0  0  0  0  0  0  0  0  0  0
    3.3167   -7.8417    0.0000 O   0  0  0  0  0  0  0  0  0  0  0  0
    0.2625   -7.8667    0.0000 Cl  0  0  0  0  0  0  0  0  0  0  0  0
    3.5417   -8.6333    0.0000 C   0  0  0  0  0  0  0  0  0  0  0  0
  2  1  1  0
  3  4  1  0
  4  1  1  0
  5  7  1  0
  6  1  1  0
  7 10  1  0
  8  5  1  0
  3  9  1  6
 10  9  1  0
 11  8  2  0
 12  5  2  0
 13 12  1  0
 14  6  1  0
 15 21  1  0
 16 15  1  0
  4 17  1  6
 18  6  2  0
 19  7  2  0
 20  2  2  0
 21 25  1  0
 22 16  1  0
 23 10  2  0
 24 14  1  0
 25 24  1  0
 26 16  2  0
 27 14  2  0
 28 15  2  0
 29 22  1  0
 30 26  1  0
 31 11  1  0
 32 18  1  0
 33 19  1  0
 35 33  1  0
  2  3  1  0
 17 32  1  0
 13 11  1  0
 29 30  2  0
M  END
>  <ID>  (1024) 


>  <MOLENAME>  (1024) 
CEFTIOFUR HYDROCHLORIDE

>  <therap>  (1024) 
antibacterial

>  <ref>  (1024) 
Am J Vet Res 48:1050 (1987)

>  <cas#>  (1024) 
80370-57-6

>  <source>  (1024) 
semisynthetic; U-64279

>  <status>  (1024) 
USAN, INN, BAN

>  <tradename>  (1024) 
EXCENEL

>  <SMILES>  (1024) 
CO/N=C(/C(=O)N[C@@H]1C(=O)N2C(C(=O)OCSC(=O)c3ccco3)=CCS[C@H]12)c1csc(N)n1

>  <standardized_failed>  (1024) 
False

$$$$

     RDKit          2D

 26 28  0  0  0  0  0  0  0  0999 V2000
    7.1042   -0.8917    0.0000 N   0  0  0  0  0  0  0  0  0  0  0  0
    7.8250   -2.1292    0.0000 C   0  0  0  0  0  0  0  0  0  0  0  0
    6.3958   -1.3083    0.0000 C   0  0  0  0  0  0  0  0  0  0  0  0
    6.3958   -2.1333    0.0000 C   0  0  0  0  0  0  0  0  0  0  0  0
    5.6792   -0.8958    0.0000 C   0  0  0  0  0  0  0  0  0  0  0  0
    7.8208   -1.3000    0.0000 C   0  0  0  0  0  0  0  0  0  0  0  0
    7.1125   -2.5458    0.0000 C   0  0  0  0  0  0  0  0  0  0  0  0
    4.9667   -1.3125    0.0000 C   0  0  0  0  0  0  0  0  0  0  0  0
    4.2583   -0.9000    0.0000 N   0  0  0  0  0  0  0  0  0  0  0  0
    4.9667   -2.1375    0.0000 C   0  0  0  0  0  0  0  0  0  0  0  0
    7.1000   -0.0667    0.0000 C   0  0  0  0  0  0  0  0  0  0  0  0
    5.6792   -2.5500    0.0000 C   0  0  0  0  0  0  0  0  0  0  0  0
    8.5417   -2.5375    0.0000 C   0  0  0  0  0  0  0  0  0  0  0  0
    6.6833    0.6417    0.0000 C   0  0  0  0  0  0  0  0  0  0  0  0
    7.5083    0.6458    0.0000 C   0  0  0  0  0  0  0  0  0  0  0  0
    3.5042   -1.2333    0.0000 C   0  0  0  0  0  0  0  0  0  0  0  0
    4.1708   -0.0792    0.0000 C   0  0  0  0  0  0  0  0  0  0  0  0
    7.1125   -3.3708    0.0000 O   0  0  0  0  0  0  0  0  0  0  0  0
    5.6750   -0.0708    0.0000 Cl  0  0  0  0  0  0  0  0  0  0  0  0
    8.5458   -3.3625    0.0000 O   0  0  0  0  0  0  0  0  0  0  0  0
    3.3625    0.0917    0.0000 C   0  0  0  0  0  0  0  0  0  0  0  0
    4.2500   -2.5500    0.0000 F   0  0  0  0  0  0  0  0  0  0  0  0
    2.9500   -0.6208    0.0000 C   0  0  0  0  0  0  0  0  0  0  0  0
    9.2542   -2.1250    0.0000 O   0  0  0  0  0  0  0  0  0  0  0  0
    2.1292   -0.7083    0.0000 N   0  0  0  0  0  0  0  0  0  0  0  0
    2.5542   -2.2792    0.0000 Cl  0  0  0  0  0  0  0  0  0  0  0  0
  2  6  2  0
  3  1  1  0
  4  3  2  0
  5  3  1  0
  6  1  1  0
  7  4  1  0
  8  5  2  0
  9  8  1  0
 10  8  1  0
 11  1  1  0
 12  4  1  0
 13  2  1  0
 14 11  1  0
 15 11  1  0
 16  9  1  0
 17  9  1  0
 18  7  2  0
 19  5  1  0
 20 13  2  0
 21 17  1  0
 22 10  1  0
 23 16  1  0
 24 13  1  0
 25 23  1  0
 15 14  1  0
 12 10  2  0
  2  7  1  0
 23 21  1  0
M  END
>  <ID>  (1025) 


>  <MOLENAME>  (1025) 
CLINAFOXACIN HYDROCHLORIDE

>  <therap>  (1025) 
antibacterial

>  <ref>  (1025) 
Chemotherapy 38:92 (1992)

>  <cas#>  (1025) 
105956--99-8

>  <source>  (1025) 
synthetic; CI-960

>  <status>  (1025) 
USAN

>  <tradename>  (1025) 
nan

>  <SMILES>  (1025) 
NC1CCN(c2c(Cl)c3c(cc2F)c(=O)c(C(=O)O)cn3C2CC2)C1

>  <standardized_failed>  (1025) 
False

$$$$

     RDKit          2D

 25 27  0  0  0  0  0  0  0  0999 V2000
    4.1292   -1.2125    0.0000 C   0  0  0  0  0  0  0  0  0  0  0  0
    1.9000    1.8208    0.0000 N   0  0  0  0  0  0  0  0  0  0  0  0
    2.8917    0.9333    0.0000 N   0  0  0  0  0  0  0  0  0  0  0  0
    3.3042   -1.2167    0.0000 S   0  0  0  0  0  0  0  0  0  0  0  0
    2.0667    1.0083    0.0000 C   0  0  0  0  0  0  0  0  0  0  0  0
    4.5417   -1.9250    0.0000 C   0  0  0  0  0  0  0  0  0  0  0  0
    4.5375   -0.5000    0.0000 C   0  0  0  0  0  0  0  0  0  0  0  0
    2.6167    2.2333    0.0000 C   0  0  0  0  0  0  0  0  0  0  0  0
    3.2292    1.6833    0.0000 C   0  0  0  0  0  0  0  0  0  0  0  0
    3.3042    0.2125    0.0000 C   0  0  0  0  0  0  0  0  0  0  0  0
    2.8917   -0.5042    0.0000 C   0  0  0  0  0  0  0  0  0  0  0  0
   -0.8250   -1.2167    0.0000 C   0  0  0  0  0  0  0  0  0  0  0  0
    4.1167    0.2125    0.0000 Cl  0  0  0  0  0  0  0  0  0  0  0  0
    4.1292   -2.6417    0.0000 Cl  0  0  0  0  0  0  0  0  0  0  0  0
    0.8292   -1.2167    0.0000 C   0  0  0  0  0  0  0  0  0  0  0  0
   -1.6500   -1.2125    0.0000 Cl  0  0  0  0  0  0  0  0  0  0  0  0
    2.0667   -0.5042    0.0000 C   0  0  0  0  0  0  0  0  0  0  0  0
    1.6542   -1.2167    0.0000 C   0  0  0  0  0  0  0  0  0  0  0  0
   -0.4125   -0.5000    0.0000 C   0  0  0  0  0  0  0  0  0  0  0  0
   -0.4125   -1.9292    0.0000 C   0  0  0  0  0  0  0  0  0  0  0  0
    0.4167   -1.9292    0.0000 C   0  0  0  0  0  0  0  0  0  0  0  0
    0.4167   -0.5000    0.0000 C   0  0  0  0  0  0  0  0  0  0  0  0
    5.7792   -1.2042    0.0000 C   0  0  0  0  0  0  0  0  0  0  0  0
    5.3667   -1.9250    0.0000 C   0  0  0  0  0  0  0  0  0  0  0  0
    5.3542   -0.4917    0.0000 C   0  0  0  0  0  0  0  0  0  0  0  0
  2  5  2  0
  3 10  1  0
  4  1  1  0
  5  3  1  0
  6  1  2  0
  7  1  1  0
  8  9  2  0
  9  3  1  0
 10 11  1  0
 11  4  1  0
 12 19  2  0
 13  7  1  0
 14  6  1  0
 15 18  1  0
 16 12  1  0
 17 11  1  0
 18 17  1  0
 19 22  1  0
 20 21  2  0
 21 15  1  0
 22 15  2  0
 23 25  1  0
 24  6  1  0
 25  7  2  0
 23 24  2  0
  2  8  1  0
 12 20  1  0
M  END
>  <ID>  (1026) 


>  <MOLENAME>  (1026) 
BUTOCONAZOLE

>  <therap>  (1026) 
antifungal

>  <ref>  (1026) 
J Antimicrob Chemother14:105 (1984); Obstet Gynecol 64:530 (1984)

>  <cas#>  (1026) 
64872-77-1, 64872-76-0 [butoconazole]

>  <source>  (1026) 
synthetic; RS-35887

>  <status>  (1026) 
USP, INN, BAN

>  <tradename>  (1026) 
FEMSTAT

>  <SMILES>  (1026) 
Clc1ccc(CCC(Cn2ccnc2)Sc2c(Cl)cccc2Cl)cc1

>  <standardized_failed>  (1026) 
False

$$$$

     RDKit          2D

 42 46  0  0  0  0  0  0  0  0999 V2000
    6.3667   -6.6250    0.0000 N   0  0  0  0  0  0  0  0  0  0  0  0
    5.5292   -6.6375    0.0000 C   0  0  0  0  0  0  0  0  0  0  0  0
    5.5292   -5.8042    0.0000 C   0  0  0  0  0  0  0  0  0  0  0  0
    6.3750   -5.8042    0.0000 C   0  0  0  0  0  0  0  0  0  0  0  0
    9.9250   -6.2375    0.0000 C   0  0  0  0  0  0  0  0  0  0  0  0
    7.0667   -7.0417    0.0000 C   0  0  0  0  0  0  0  0  0  0  0  0
   10.6792   -6.5667    0.0000 N   0  0  0  0  0  0  0  0  0  0  0  0
   10.0083   -5.4125    0.0000 N   0  0  0  0  0  0  0  0  0  0  0  0
   10.8125   -5.2417    0.0000 N   0  0  0  0  0  0  0  0  0  0  0  0
   11.2292   -5.9542    0.0000 N   0  0  0  0  0  0  0  0  0  0  0  0
    4.9500   -5.2167    0.0000 N   0  0  0  0  0  0  0  0  0  0  0  0
    4.5833   -3.8375    0.0000 C   0  0  0  0  0  0  0  0  0  0  0  0
    7.0917   -5.4000    0.0000 S   0  0  0  0  0  0  0  0  0  0  0  0
    4.7958   -3.0417    0.0000 C   0  0  0  0  0  0  0  0  0  0  0  0
    7.7875   -6.6375    0.0000 C   0  0  0  0  0  0  0  0  0  0  0  0
    4.1542   -5.4292    0.0000 C   0  0  0  0  0  0  0  0  0  0  0  0
    3.7875   -4.0500    0.0000 N   0  0  0  0  0  0  0  0  0  0  0  0
    3.5750   -4.8500    0.0000 C   0  0  0  0  0  0  0  0  0  0  0  0
    4.2167   -2.4625    0.0000 C   0  0  0  0  0  0  0  0  0  0  0  0
    7.0625   -7.8542    0.0000 C   0  0  0  0  0  0  0  0  0  0  0  0
    9.2125   -6.6542    0.0000 S   0  0  0  0  0  0  0  0  0  0  0  0
    5.5958   -2.8292    0.0000 C   0  0  0  0  0  0  0  0  0  0  0  0
    5.8083   -2.0333    0.0000 N   0  0  0  0  0  0  0  0  0  0  0  0
    7.7917   -5.8167    0.0000 C   0  0  0  0  0  0  0  0  0  0  0  0
    4.4250   -1.6667    0.0000 C   0  0  0  0  0  0  0  0  0  0  0  0
    4.9500   -7.2167    0.0000 O   0  0  0  0  0  0  0  0  0  0  0  0
    8.4958   -7.0542    0.0000 C   0  0  0  0  0  0  0  0  0  0  0  0
    2.7792   -5.0625    0.0000 C   0  0  0  0  0  0  0  0  0  0  0  0
    5.1667   -4.4208    0.0000 O   0  0  0  0  0  0  0  0  0  0  0  0
    3.9375   -6.2292    0.0000 O   0  0  0  0  0  0  0  0  0  0  0  0
    6.3417   -8.2625    0.0000 O   0  0  0  0  0  0  0  0  0  0  0  0
    5.2250   -1.4500    0.0000 C   0  0  0  0  0  0  0  0  0  0  0  0
    2.5667   -5.8500    0.0000 C   0  0  0  0  0  0  0  0  0  0  0  0
    2.1958   -4.4750    0.0000 C   0  0  0  0  0  0  0  0  0  0  0  0
    3.4167   -2.6792    0.0000 O   0  0  0  0  0  0  0  0  0  0  0  0
   10.8542   -7.3750    0.0000 C   0  0  0  0  0  0  0  0  0  0  0  0
    7.7750   -8.2750    0.0000 O   0  0  0  0  0  0  0  0  0  0  0  0
    1.1875   -5.4833    0.0000 C   0  0  0  0  0  0  0  0  0  0  0  0
    1.7750   -6.0667    0.0000 C   0  0  0  0  0  0  0  0  0  0  0  0
    1.4000   -4.6875    0.0000 C   0  0  0  0  0  0  0  0  0  0  0  0
    0.3917   -5.6958    0.0000 O   0  0  0  0  0  0  0  0  0  0  0  0
    5.4375   -0.6542    0.0000 C   0  0  0  0  0  0  0  0  0  0  0  0
  2  1  1  0
  3  4  1  0
  4  1  1  0
  5 21  1  0
  6  1  1  0
  7  5  1  0
  8  5  2  0
  9  8  1  0
 10  7  1  0
  3 11  1  1
 12 17  1  0
 13  4  1  0
 14 12  1  0
 15  6  2  0
 16 11  1  0
 18 17  1  1
 18 16  1  0
 19 14  2  0
 20  6  1  0
 21 27  1  0
 22 14  1  0
 23 22  2  0
 24 15  1  0
 25 19  1  0
 26  2  2  0
 27 15  1  0
 28 18  1  0
 29 12  2  0
 30 16  2  0
 31 20  2  0
 32 25  2  0
 33 28  2  0
 34 28  1  0
 35 19  1  0
 36  7  1  0
 37 20  1  0
 38 39  2  0
 39 33  1  0
 40 34  2  0
 41 38  1  0
 42 32  1  0
  2  3  1  0
 13 24  1  0
  9 10  2  0
 38 40  1  0
 32 23  1  0
M  END
>  <ID>  (1027) 


>  <MOLENAME>  (1027) 
CEFPIRAMIDE

>  <therap>  (1027) 
antibacterial

>  <ref>  (1027) 
Antimicrob Agents Chemother 22:213 (1982); 26:578 (1984)

>  <cas#>  (1027) 
70797-11-4

>  <source>  (1027) 
synthetic; WY-44635

>  <status>  (1027) 
USP, INN

>  <tradename>  (1027) 
CEFPIRAN

>  <SMILES>  (1027) 
Cc1cc(O)c(C(=O)N[C@@H](C(=O)N[C@@H]2C(=O)N3C(C(=O)O)=C(CSc4nnnn4C)CSC23)c2ccc(O)cc2)cn1

>  <standardized_failed>  (1027) 
False

$$$$

     RDKit          2D

 17 18  0  0  0  0  0  0  0  0999 V2000
    6.8667   -3.3542    0.0000 N   0  0  0  0  0  0  0  0  0  0  0  0
    6.8667   -4.1792    0.0000 C   0  0  0  0  0  0  0  0  0  0  0  0
    7.5792   -2.9417    0.0000 C   0  0  0  0  0  0  0  0  0  0  0  0
    7.5792   -2.1125    0.0000 N   0  0  0  0  0  0  0  0  0  0  0  0
    6.1542   -2.1125    0.0000 N   0  0  0  0  0  0  0  0  0  0  0  0
    7.6542   -4.4250    0.0000 C   0  0  0  0  0  0  0  0  0  0  0  0
    6.3917   -4.8500    0.0000 O   0  0  0  0  0  0  0  0  0  0  0  0
    6.1542   -2.9417    0.0000 C   0  0  0  0  0  0  0  0  0  0  0  0
    6.8667   -1.7000    0.0000 C   0  0  0  0  0  0  0  0  0  0  0  0
    7.6625   -5.2500    0.0000 C   0  0  0  0  0  0  0  0  0  0  0  0
    6.8875   -5.5125    0.0000 C   0  0  0  0  0  0  0  0  0  0  0  0
    8.3042   -3.3625    0.0000 O   0  0  0  0  0  0  0  0  0  0  0  0
    8.3250   -3.9292    0.0000 O   0  0  0  0  0  0  0  0  0  0  0  0
    6.8667   -0.8750    0.0000 N   0  0  0  0  0  0  0  0  0  0  0  0
    8.3292   -5.7417    0.0000 O   0  0  0  0  0  0  0  0  0  0  0  0
    6.6417   -6.3042    0.0000 C   0  0  0  0  0  0  0  0  0  0  0  0
    7.2042   -6.9042    0.0000 O   0  0  0  0  0  0  0  0  0  0  0  0
  2  1  1  1
  3  1  1  0
  4  3  1  0
  5  8  2  0
  6  2  1  0
  7  2  1  0
  8  1  1  0
  9  5  1  0
 10  6  1  0
 11  7  1  0
 12  3  2  0
  6 13  1  6
 14  9  1  0
 10 15  1  6
 11 16  1  1
 17 16  1  0
  4  9  2  0
 11 10  1  0
M  END
>  <ID>  (1028) 


>  <MOLENAME>  (1028) 
AZACITIDINE

>  <therap>  (1028) 
antineoplastic, pyrimidine antimetabolite

>  <ref>  (1028) 
Cancer Treat Rep 71:737, 959 (1987); N Engl J Med 329:845 (1993)

>  <cas#>  (1028) 
 320-67-2

>  <source>  (1028) 
synthetic; U-18496; NSC-102816

>  <status>  (1028) 
USAN, INN

>  <tradename>  (1028) 
VIDAZA

>  <SMILES>  (1028) 
Nc1nc(=O)n([C@@H]2O[C@H](CO)[C@@H](O)[C@H]2O)cn1

>  <standardized_failed>  (1028) 
False

$$$$

     RDKit          2D

 39 44  0  0  0  0  0  0  0  0999 V2000
    2.7167   -2.8500    0.0000 C   0  0  0  0  0  0  0  0  0  0  0  0
    5.1750   -4.4417    0.0000 N   0  0  0  0  0  0  0  0  0  0  0  0
    4.5042   -5.6042    0.0000 N   0  0  0  0  0  0  0  0  0  0  0  0
    1.9000   -2.7625    0.0000 N   0  0  0  0  0  0  0  0  0  0  0  0
    3.0625   -2.0917    0.0000 N   0  0  0  0  0  0  0  0  0  0  0  0
    4.3667   -4.2750    0.0000 C   0  0  0  0  0  0  0  0  0  0  0  0
    5.2542   -5.2667    0.0000 C   0  0  0  0  0  0  0  0  0  0  0  0
    3.9542   -4.9917    0.0000 C   0  0  0  0  0  0  0  0  0  0  0  0
    3.1292   -3.5667    0.0000 C   0  0  0  0  0  0  0  0  0  0  0  0
    2.4417   -1.5417    0.0000 C   0  0  0  0  0  0  0  0  0  0  0  0
    1.7292   -1.9542    0.0000 C   0  0  0  0  0  0  0  0  0  0  0  0
    3.9542   -3.5625    0.0000 C   0  0  0  0  0  0  0  0  0  0  0  0
    9.5250   -4.3542    0.0000 C   0  0  0  0  0  0  0  0  0  0  0  0
    3.1250   -4.9917    0.0000 C   0  0  0  0  0  0  0  0  0  0  0  0
    8.9167   -4.9042    0.0000 C   0  0  0  0  0  0  0  0  0  0  0  0
    9.3500   -3.5500    0.0000 C   0  0  0  0  0  0  0  0  0  0  0  0
    2.7167   -4.2750    0.0000 C   0  0  0  0  0  0  0  0  0  0  0  0
    5.7792   -3.8917    0.0000 C   0  0  0  0  0  0  0  0  0  0  0  0
    8.1375   -4.6542    0.0000 C   0  0  0  0  0  0  0  0  0  0  0  0
    8.5625   -3.2917    0.0000 O   0  0  0  0  0  0  0  0  0  0  0  0
    7.5167   -5.2042    0.0000 C   0  0  0  0  0  0  0  0  0  0  0  0
    7.9542   -3.8417    0.0000 C   0  0  0  0  0  0  0  0  0  0  0  0
    6.5667   -4.1417    0.0000 C   0  0  0  0  0  0  0  0  0  0  0  0
    3.8667   -1.9250    0.0000 C   0  0  0  0  0  0  0  0  0  0  0  0
    9.9542   -2.9917    0.0000 O   0  0  0  0  0  0  0  0  0  0  0  0
    5.9750   -5.6792    0.0000 C   0  0  0  0  0  0  0  0  0  0  0  0
    7.1750   -3.5917    0.0000 C   0  0  0  0  0  0  0  0  0  0  0  0
    6.7375   -4.9542    0.0000 C   0  0  0  0  0  0  0  0  0  0  0  0
    2.4417   -0.7125    0.0000 C   0  0  0  0  0  0  0  0  0  0  0  0
    1.0167   -1.5417    0.0000 C   0  0  0  0  0  0  0  0  0  0  0  0
   10.3042   -4.6042    0.0000 C   0  0  0  0  0  0  0  0  0  0  0  0
    9.0917   -5.7167    0.0000 C   0  0  0  0  0  0  0  0  0  0  0  0
    2.7125   -5.7042    0.0000 C   0  0  0  0  0  0  0  0  0  0  0  0
    5.9750   -6.5042    0.0000 C   0  0  0  0  0  0  0  0  0  0  0  0
    1.7292   -0.3000    0.0000 C   0  0  0  0  0  0  0  0  0  0  0  0
   10.4875   -5.4125    0.0000 C   0  0  0  0  0  0  0  0  0  0  0  0
    9.8750   -5.9667    0.0000 C   0  0  0  0  0  0  0  0  0  0  0  0
    1.0167   -0.7125    0.0000 C   0  0  0  0  0  0  0  0  0  0  0  0
    6.6917   -6.9125    0.0000 C   0  0  0  0  0  0  0  0  0  0  0  0
  2  6  1  0
  3  8  1  0
  4  1  2  0
  5  1  1  0
  6 12  2  0
  7  2  1  0
  8 14  2  0
  9  1  1  0
 10  5  1  0
 11  4  1  0
 12  9  1  0
 13 15  2  0
 14 17  1  0
 15 19  1  0
 16 13  1  0
 17  9  2  0
 18  2  1  0
 19 21  2  0
 20 16  2  0
 21 28  1  0
 22 27  2  0
 23 18  1  0
 24  5  1  0
 25 16  1  0
 26  7  1  0
 27 23  1  0
 28 23  2  0
 29 10  2  0
 30 11  2  0
 31 13  1  0
 32 15  1  0
 33 14  1  0
 34 26  1  0
 35 29  1  0
 36 37  1  0
 37 32  2  0
 38 30  1  0
 39 34  1  0
 10 11  1  0
  6  8  1  0
 35 38  2  0
  3  7  2  0
 22 19  1  0
 31 36  2  0
M  END
>  <ID>  (1029) 


>  <MOLENAME>  (1029) 
TELMISARTAN

>  <therap>  (1029) 
antihypertensive, angiotensin II blocker

>  <ref>  (1029) 
Br J Pharmacol 110:245 (1993); Adv Ther 15:206, 229 (1998); Drugs 56:1039 (1998)

>  <cas#>  (1029) 
144701-48-4

>  <source>  (1029) 
synthetic; BIBR-277 SE

>  <status>  (1029) 
USAN, INN, BAN

>  <tradename>  (1029) 
MICARDIS

>  <SMILES>  (1029) 
CCCc1nc2c(C)cc(-c3nc4ccccc4n3C)cc2n1Cc1ccc(-c2c(C(=O)O)cccc2)cc1

>  <standardized_failed>  (1029) 
False

$$$$

     RDKit          2D

 17 18  0  0  0  0  0  0  0  0999 V2000
    7.0792   -3.8250    0.0000 N   0  0  0  0  0  0  0  0  0  0  0  0
    7.3750   -3.0542    0.0000 N   0  0  0  0  0  0  0  0  0  0  0  0
    6.2625   -3.7792    0.0000 C   0  0  0  0  0  0  0  0  0  0  0  0
    6.0417   -2.9875    0.0000 C   0  0  0  0  0  0  0  0  0  0  0  0
    5.2750   -2.6875    0.0000 N   0  0  0  0  0  0  0  0  0  0  0  0
    7.3000   -4.6167    0.0000 N   0  0  0  0  0  0  0  0  0  0  0  0
    6.7292   -2.5417    0.0000 O   0  0  0  0  0  0  0  0  0  0  0  0
    5.1500   -1.8667    0.0000 C   0  0  0  0  0  0  0  0  0  0  0  0
    5.7917   -1.3542    0.0000 O   0  0  0  0  0  0  0  0  0  0  0  0
    7.7292   -6.2125    0.0000 O   0  0  0  0  0  0  0  0  0  0  0  0
    6.7167   -5.2042    0.0000 C   0  0  0  0  0  0  0  0  0  0  0  0
    8.0917   -4.8292    0.0000 C   0  0  0  0  0  0  0  0  0  0  0  0
    4.3792   -1.5667    0.0000 O   0  0  0  0  0  0  0  0  0  0  0  0
    8.3125   -5.6292    0.0000 C   0  0  0  0  0  0  0  0  0  0  0  0
    6.9292   -5.9917    0.0000 C   0  0  0  0  0  0  0  0  0  0  0  0
    4.2542   -0.7542    0.0000 C   0  0  0  0  0  0  0  0  0  0  0  0
    3.4917   -0.4500    0.0000 C   0  0  0  0  0  0  0  0  0  0  0  0
  2  1  2  0
  3  1  1  0
  4  3  2  0
  5  4  1  0
  6  1  1  0
  7  2  1  0
  8  5  1  0
  9  8  2  0
 10 14  1  0
 11  6  1  0
 12  6  1  0
 13  8  1  0
 14 12  1  0
 15 11  1  0
 16 13  1  0
 17 16  1  0
  4  7  1  0
 10 15  1  0
M  CHG  2   1   1   5  -1
M  END
>  <ID>  (1030) 


>  <MOLENAME>  (1030) 
MOLSIDOMINE

>  <therap>  (1030) 
antianginal

>  <ref>  (1030) 
Eur. Heart J. (1983), 4(9), 655-61; Eur. J. Clin. Pharmacol. (1982), 23(1), 11-4; Eur. J. Clin. Pharmacol. (1980), 18(3), 231-5

>  <cas#>  (1030) 
25717-80-0

>  <source>  (1030) 
synthetic; CAS-276

>  <status>  (1030) 
USAN, INN, BAN, JAN

>  <tradename>  (1030) 
CORVATON

>  <SMILES>  (1030) 
CCOC(=O)[N-]c1c[n+](N2CCOCC2)no1

>  <standardized_failed>  (1030) 
False

$$$$

     RDKit          2D

 38 43  0  0  0  0  0  0  0  0999 V2000
    5.6125   -0.9583    0.0000 C   0  0  0  0  0  0  0  0  0  0  0  0
    5.6250   -0.1292    0.0000 C   0  0  0  0  0  0  0  0  0  0  0  0
    0.6042   -2.1667    0.0000 C   0  0  0  0  0  0  0  0  0  0  0  0
    3.4625   -1.3500    0.0000 C   0  0  0  0  0  0  0  0  0  0  0  0
    0.6042   -1.3417    0.0000 O   0  0  0  0  0  0  0  0  0  0  0  0
   -0.1083   -2.5750    0.0000 C   0  0  0  0  0  0  0  0  0  0  0  0
   -0.8208   -2.1667    0.0000 C   0  0  0  0  0  0  0  0  0  0  0  0
   -0.8208   -1.3417    0.0000 C   0  0  0  0  0  0  0  0  0  0  0  0
    4.8917   -1.3667    0.0000 C   0  0  0  0  0  0  0  0  0  0  0  0
    3.4542   -2.1792    0.0000 C   0  0  0  0  0  0  0  0  0  0  0  0
    4.1792   -0.9417    0.0000 C   0  0  0  0  0  0  0  0  0  0  0  0
   -0.1083   -0.9250    0.0000 C   0  0  0  0  0  0  0  0  0  0  0  0
    6.4167    0.1125    0.0000 C   0  0  0  0  0  0  0  0  0  0  0  0
    6.6833    0.8958    0.0000 C   0  0  0  0  0  0  0  0  0  0  0  0
    2.7458   -2.5833    0.0000 C   0  0  0  0  0  0  0  0  0  0  0  0
    6.3958   -1.2250    0.0000 C   0  0  0  0  0  0  0  0  0  0  0  0
    4.9083    0.2958    0.0000 C   0  0  0  0  0  0  0  0  0  0  0  0
    7.4917    1.0500    0.0000 C   0  0  0  0  0  0  0  0  0  0  0  0
    7.2125    2.4500    0.0000 C   0  0  0  0  0  0  0  0  0  0  0  0
    6.1375    1.5083    0.0000 C   0  0  0  0  0  0  0  0  0  0  0  0
    7.7583    1.8292    0.0000 O   0  0  0  0  0  0  0  0  0  0  0  0
    4.1833   -0.1125    0.0000 C   0  0  0  0  0  0  0  0  0  0  0  0
    1.3208   -2.5792    0.0000 O   0  0  0  0  0  0  0  0  0  0  0  0
    2.7500   -0.9333    0.0000 C   0  0  0  0  0  0  0  0  0  0  0  0
    6.8917   -0.5625    0.0000 C   0  0  0  0  0  0  0  0  0  0  0  0
    4.8833   -2.1875    0.0000 C   0  0  0  0  0  0  0  0  0  0  0  0
    6.4000    2.2875    0.0000 C   0  0  0  0  0  0  0  0  0  0  0  0
    4.1667   -2.5917    0.0000 C   0  0  0  0  0  0  0  0  0  0  0  0
    2.0333   -2.1667    0.0000 C   0  0  0  0  0  0  0  0  0  0  0  0
    7.4792    3.2333    0.0000 O   0  0  0  0  0  0  0  0  0  0  0  0
    5.6042   -1.7792    0.0000 O   0  0  0  0  0  0  0  0  0  0  0  0
   -0.1083   -3.4000    0.0000 O   0  0  0  0  0  0  0  0  0  0  0  0
   -1.5333   -0.9292    0.0000 O   0  0  0  0  0  0  0  0  0  0  0  0
   -1.5333   -2.5792    0.0000 O   0  0  0  0  0  0  0  0  0  0  0  0
   -0.1083   -0.0958    0.0000 O   0  0  0  0  0  0  0  0  0  0  0  0
    2.0292   -1.3458    0.0000 C   0  0  0  0  0  0  0  0  0  0  0  0
    5.6167    0.6958    0.0000 C   0  0  0  0  0  0  0  0  0  0  0  0
    3.4542   -0.5250    0.0000 C   0  0  0  0  0  0  0  0  0  0  0  0
  2  1  1  0
  3 23  1  0
  4 11  1  0
  5  3  1  0
  6  3  1  0
  7  6  1  0
  8 12  1  0
  9  1  1  0
 10  4  1  0
 11  9  1  0
 12  5  1  0
 13  2  1  0
 13 14  1  0
 15 10  2  0
 16  1  1  0
 17  2  1  0
 18 14  2  0
 19 27  1  0
 20 14  1  0
 21 18  1  0
 22 17  1  0
 29 23  1  1
 24  4  1  0
 25 16  1  0
 26  9  1  0
 27 20  2  0
 28 26  1  0
 29 15  1  0
 30 19  2  0
  1 31  1  1
 32  6  1  0
 33  8  1  0
 34  7  1  0
 35 12  1  0
 36 24  1  0
  2 37  1  1
  4 38  1  1
 13 25  1  1
 22 11  1  0
 28 10  1  0
 19 21  1  0
 36 29  1  0
  7  8  1  0
M  END
>  <ID>  (1031) 


>  <MOLENAME>  (1031) 
PROSCILLARIDIN

>  <therap>  (1031) 
cardiotonic

>  <ref>  (1031) 
Arzneim Forsch 20:1 (1970); Toxicol Appl Pharmacol 18:185 (1971); Arzneim Forsch 28:493 (1978)

>  <cas#>  (1031) 
466-06-8

>  <source>  (1031) 
Scilla spp; A-32686, 2936

>  <status>  (1031) 
USAN, INN, BAN, JAN

>  <tradename>  (1031) 
CARADRIN

>  <SMILES>  (1031) 
C[C@]12CC[C@H](OC3OC(O)C(O)C(O)C3O)C=C1CCC1C2CC[C@]2(C)[C@@H](c3coc(=O)cc3)CC[C@]12O

>  <standardized_failed>  (1031) 
False

$$$$

     RDKit          2D

 79 81  0  0  0  0  0  0  0  0999 V2000
   -0.7125   -5.3542    0.0000 C   0  0  0  0  0  0  0  0  0  0  0  0
   -0.7125   -6.1792    0.0000 C   0  0  0  0  0  0  0  0  0  0  0  0
   -1.4292   -6.5875    0.0000 C   0  0  0  0  0  0  0  0  0  0  0  0
    1.4250   -2.4625    0.0000 C   0  0  0  0  0  0  0  0  0  0  0  0
   -1.4292   -4.9417    0.0000 O   0  0  0  0  0  0  0  0  0  0  0  0
   -2.1417   -6.1792    0.0000 C   0  0  0  0  0  0  0  0  0  0  0  0
    2.1333   -2.0500    0.0000 C   0  0  0  0  0  0  0  0  0  0  0  0
    1.4250   -3.2875    0.0000 C   0  0  0  0  0  0  0  0  0  0  0  0
   12.1167   -3.7000    0.0000 O   0  0  0  0  0  0  0  0  0  0  0  0
   12.8333   -3.2875    0.0000 C   0  0  0  0  0  0  0  0  0  0  0  0
   12.1167   -4.5250    0.0000 C   0  0  0  0  0  0  0  0  0  0  0  0
   -2.1417   -5.3542    0.0000 C   0  0  0  0  0  0  0  0  0  0  0  0
    0.7125   -2.0542    0.0000 C   0  0  0  0  0  0  0  0  0  0  0  0
   12.8250   -7.4125    0.0000 C   0  0  0  0  0  0  0  0  0  0  0  0
   12.1125   -7.0000    0.0000 C   0  0  0  0  0  0  0  0  0  0  0  0
    2.8500   -2.4542    0.0000 C   0  0  0  0  0  0  0  0  0  0  0  0
   12.8333   -2.4625    0.0000 C   0  0  0  0  0  0  0  0  0  0  0  0
    0.0000   -4.9375    0.0000 O   0  0  0  0  0  0  0  0  0  0  0  0
    0.7125   -3.7000    0.0000 C   0  0  0  0  0  0  0  0  0  0  0  0
    3.5625   -2.0417    0.0000 C   0  0  0  0  0  0  0  0  0  0  0  0
   12.8292   -4.9375    0.0000 C   0  0  0  0  0  0  0  0  0  0  0  0
   12.8292   -5.7625    0.0000 C   0  0  0  0  0  0  0  0  0  0  0  0
   13.5417   -7.0000    0.0000 C   0  0  0  0  0  0  0  0  0  0  0  0
   11.3958   -7.4125    0.0000 C   0  0  0  0  0  0  0  0  0  0  0  0
    0.7125   -4.5250    0.0000 C   0  0  0  0  0  0  0  0  0  0  0  0
    4.2750   -2.4542    0.0000 C   0  0  0  0  0  0  0  0  0  0  0  0
   13.5417   -6.1750    0.0000 C   0  0  0  0  0  0  0  0  0  0  0  0
   12.1167   -2.0500    0.0000 C   0  0  0  0  0  0  0  0  0  0  0  0
   13.5458   -3.7000    0.0000 O   0  0  0  0  0  0  0  0  0  0  0  0
    8.5500   -2.4417    0.0000 C   0  0  0  0  0  0  0  0  0  0  0  0
   11.4000   -4.9375    0.0000 C   0  0  0  0  0  0  0  0  0  0  0  0
    0.7083   -1.2292    0.0000 O   0  0  0  0  0  0  0  0  0  0  0  0
    7.1250   -2.4417    0.0000 C   0  0  0  0  0  0  0  0  0  0  0  0
    5.7000   -2.4500    0.0000 C   0  0  0  0  0  0  0  0  0  0  0  0
    9.2625   -2.0292    0.0000 C   0  0  0  0  0  0  0  0  0  0  0  0
   12.1125   -6.1750    0.0000 O   0  0  0  0  0  0  0  0  0  0  0  0
    0.0000   -6.5875    0.0000 N   0  0  0  0  0  0  0  0  0  0  0  0
    4.9875   -2.0417    0.0000 C   0  0  0  0  0  0  0  0  0  0  0  0
    7.8375   -2.0292    0.0000 C   0  0  0  0  0  0  0  0  0  0  0  0
    6.4125   -2.0375    0.0000 C   0  0  0  0  0  0  0  0  0  0  0  0
    3.5583   -1.2167    0.0000 O   0  0  0  0  0  0  0  0  0  0  0  0
    9.2625   -4.5250    0.0000 C   0  0  0  0  0  0  0  0  0  0  0  0
    2.8500   -4.9375    0.0000 C   0  0  0  0  0  0  0  0  0  0  0  0
    3.5625   -4.5250    0.0000 C   0  0  0  0  0  0  0  0  0  0  0  0
    4.2750   -4.9375    0.0000 C   0  0  0  0  0  0  0  0  0  0  0  0
    4.9875   -4.5250    0.0000 C   0  0  0  0  0  0  0  0  0  0  0  0
    5.7000   -4.9375    0.0000 C   0  0  0  0  0  0  0  0  0  0  0  0
    6.4125   -4.5250    0.0000 C   0  0  0  0  0  0  0  0  0  0  0  0
    7.1250   -4.9375    0.0000 C   0  0  0  0  0  0  0  0  0  0  0  0
    7.8375   -4.5250    0.0000 C   0  0  0  0  0  0  0  0  0  0  0  0
    8.5500   -4.9375    0.0000 C   0  0  0  0  0  0  0  0  0  0  0  0
    9.9750   -4.9375    0.0000 C   0  0  0  0  0  0  0  0  0  0  0  0
    2.1375   -4.5250    0.0000 C   0  0  0  0  0  0  0  0  0  0  0  0
    1.4250   -4.9375    0.0000 C   0  0  0  0  0  0  0  0  0  0  0  0
   10.6875   -4.5250    0.0000 C   0  0  0  0  0  0  0  0  0  0  0  0
   12.1208   -1.2250    0.0000 O   0  0  0  0  0  0  0  0  0  0  0  0
    9.2583   -1.2042    0.0000 O   0  0  0  0  0  0  0  0  0  0  0  0
   -1.4292   -7.4125    0.0000 O   0  0  0  0  0  0  0  0  0  0  0  0
   10.6833   -6.9958    0.0000 C   0  0  0  0  0  0  0  0  0  0  0  0
   11.4000   -8.2333    0.0000 C   0  0  0  0  0  0  0  0  0  0  0  0
   -2.8500   -6.5875    0.0000 O   0  0  0  0  0  0  0  0  0  0  0  0
    2.1333   -1.2250    0.0000 O   0  0  0  0  0  0  0  0  0  0  0  0
    2.1417   -3.6958    0.0000 O   0  0  0  0  0  0  0  0  0  0  0  0
    0.0000   -2.4667    0.0000 O   0  0  0  0  0  0  0  0  0  0  0  0
    9.9708   -8.2333    0.0000 C   0  0  0  0  0  0  0  0  0  0  0  0
    9.2542   -8.6458    0.0000 N   0  0  0  0  0  0  0  0  0  0  0  0
    9.9708   -7.4083    0.0000 C   0  0  0  0  0  0  0  0  0  0  0  0
   10.6875   -8.6458    0.0000 C   0  0  0  0  0  0  0  0  0  0  0  0
   14.2542   -7.4167    0.0000 O   0  0  0  0  0  0  0  0  0  0  0  0
    4.9833   -1.2167    0.0000 O   0  0  0  0  0  0  0  0  0  0  0  0
    6.4083   -1.2125    0.0000 O   0  0  0  0  0  0  0  0  0  0  0  0
    7.8333   -1.2042    0.0000 O   0  0  0  0  0  0  0  0  0  0  0  0
   -2.8500   -4.9417    0.0000 C   0  0  0  0  0  0  0  0  0  0  0  0
   10.6875   -2.0250    0.0000 C   0  0  0  0  0  0  0  0  0  0  0  0
   13.5458   -4.5250    0.0000 C   0  0  0  0  0  0  0  0  0  0  0  0
   11.4000   -2.4333    0.0000 C   0  0  0  0  0  0  0  0  0  0  0  0
    9.9750   -2.4375    0.0000 C   0  0  0  0  0  0  0  0  0  0  0  0
   14.2583   -5.7667    0.0000 C   0  0  0  0  0  0  0  0  0  0  0  0
   11.4000   -5.7625    0.0000 C   0  0  0  0  0  0  0  0  0  0  0  0
  2  1  1  0
  3  2  1  0
  4  8  1  0
  5  1  1  0
  6  3  1  0
  7  4  1  0
  8 19  1  0
  9 11  1  0
 10  9  1  0
 11 31  1  0
 12  5  1  0
 13  4  1  0
 14 23  1  0
 15 14  1  0
 16  7  1  0
 17 10  1  0
  1 18  1  1
 19 25  1  0
 20 16  1  0
 21 11  1  0
 22 21  1  0
 23 27  1  0
 24 15  1  0
 25 18  1  0
 26 20  1  0
 27 22  1  0
 28 76  1  0
 29 10  2  0
 30 39  1  0
 31 55  1  0
 32 13  2  0
 33 40  1  0
 34 38  1  0
 35 30  1  0
 36 15  2  0
  2 37  1  1
 38 26  1  0
 39 33  1  0
 40 34  1  0
 41 20  2  0
 42 51  2  0
 43 53  1  0
 44 43  2  0
 45 44  1  0
 46 45  2  0
 47 46  1  0
 48 47  2  0
 49 48  1  0
 50 49  2  0
 51 50  1  0
 52 42  1  0
 53 54  2  0
 54 25  1  0
 55 52  2  0
 56 28  2  0
 57 35  2  0
  3 58  1  6
 59 24  2  0
 60 24  1  0
  6 61  1  1
 62  7  1  0
 63  8  1  0
 64 13  1  0
 65 68  1  0
 66 65  1  0
 67 59  1  0
 68 60  2  0
 69 23  1  0
 70 38  1  0
 71 40  1  0
 72 39  1  0
 12 73  1  1
 74 77  1  0
 75 21  1  0
 76 74  1  0
 77 35  1  0
 78 27  1  0
 79 31  1  0
 12  6  1  0
 28 17  1  0
 65 67  2  0
M  END
>  <ID>  (1032) 


>  <MOLENAME>  (1032) 
CANDICIDIN

>  <therap>  (1032) 
antifungal

>  <ref>  (1032) 
Nutr Rep Int 9:245 (1974); Lipids 16:423 (1981); Antibiot Annu 1954-55:980

>  <cas#>  (1032) 
1403-17-4

>  <source>  (1032) 
synthetic; NSC-94219

>  <status>  (1032) 
USP-XXIII, INN, BAN

>  <tradename>  (1032) 
VANOBID

>  <SMILES>  (1032) 
CC1/C=C/C=C/C=C/C=C/C=C/C=C/C=C/C(O[C@@H]2O[C@H](C)[C@H](O)[C@@H](O)[C@@H]2N)CC(O)C(C(=O)O)C(O)CC(=O)CC(O)CC(O)CC(O)CC(=O)CCCC(=O)CC(=O)OC1C(C)CC(C)C(O)CC(=O)c1ccc(N)cc1

>  <standardized_failed>  (1032) 
False

$$$$

     RDKit          2D

 17 17  0  0  0  0  0  0  0  0999 V2000
    0.5542   -2.2042    0.0000 C   0  0  0  0  0  0  0  0  0  0  0  0
    0.5542   -1.3750    0.0000 C   0  0  0  0  0  0  0  0  0  0  0  0
    1.2667   -2.6167    0.0000 C   0  0  0  0  0  0  0  0  0  0  0  0
    4.1167   -0.9542    0.0000 C   0  0  0  0  0  0  0  0  0  0  0  0
    3.4042   -1.3667    0.0000 C   0  0  0  0  0  0  0  0  0  0  0  0
    2.6917   -0.9625    0.0000 C   0  0  0  0  0  0  0  0  0  0  0  0
    1.9833   -1.3750    0.0000 C   0  0  0  0  0  0  0  0  0  0  0  0
    1.2667   -0.9625    0.0000 C   0  0  0  0  0  0  0  0  0  0  0  0
    1.9833   -2.2042    0.0000 C   0  0  0  0  0  0  0  0  0  0  0  0
    4.1167   -0.1292    0.0000 O   0  0  0  0  0  0  0  0  0  0  0  0
    4.8292   -1.3667    0.0000 N   0  0  0  0  0  0  0  0  0  0  0  0
   -0.1625   -2.6167    0.0000 O   0  0  0  0  0  0  0  0  0  0  0  0
    1.2667   -3.4417    0.0000 O   0  0  0  0  0  0  0  0  0  0  0  0
   -0.1583   -0.9667    0.0000 O   0  0  0  0  0  0  0  0  0  0  0  0
   -0.8750   -2.2042    0.0000 C   0  0  0  0  0  0  0  0  0  0  0  0
    0.5542   -3.8542    0.0000 C   0  0  0  0  0  0  0  0  0  0  0  0
   -0.1583   -0.1417    0.0000 C   0  0  0  0  0  0  0  0  0  0  0  0
  2  1  2  0
  3  1  1  0
  4  5  1  0
  5  6  2  0
  6  7  1  0
  7  8  2  0
  8  2  1  0
  9  3  2  0
 10  4  2  0
 11  4  1  0
 12  1  1  0
 13  3  1  0
 14  2  1  0
 15 12  1  0
 16 13  1  0
 17 14  1  0
  7  9  1  0
M  END
>  <ID>  (1033) 


>  <MOLENAME>  (1033) 
CINTRIAMIDE

>  <therap>  (1033) 
antipsychotic

>  <ref>  (1033) 
JAMA 186:1082 (1963)

>  <cas#>  (1033) 
5588-21-6

>  <source>  (1033) 
Alstonia lenorrmandii

>  <status>  (1033) 
USAN, INN

>  <tradename>  (1033) 
nan

>  <SMILES>  (1033) 
COc1cc(/C=C/C(N)=O)cc(OC)c1OC

>  <standardized_failed>  (1033) 
False

$$$$

     RDKit          2D

 23 24  0  0  0  0  0  0  0  0999 V2000
    4.2000   -2.1292    0.0000 C   0  0  0  0  0  0  0  0  0  0  0  0
    3.4792   -2.5500    0.0000 C   0  0  0  0  0  0  0  0  0  0  0  0
    4.1917   -2.9625    0.0000 C   0  0  0  0  0  0  0  0  0  0  0  0
    4.9042   -3.3792    0.0000 C   0  0  0  0  0  0  0  0  0  0  0  0
    2.6542   -2.5500    0.0000 C   0  0  0  0  0  0  0  0  0  0  0  0
    7.2417   -4.4000    0.0000 C   0  0  0  0  0  0  0  0  0  0  0  0
    7.6542   -3.6792    0.0000 C   0  0  0  0  0  0  0  0  0  0  0  0
    6.4375   -4.2250    0.0000 C   0  0  0  0  0  0  0  0  0  0  0  0
    5.6292   -2.9750    0.0000 O   0  0  0  0  0  0  0  0  0  0  0  0
    6.3500   -3.4000    0.0000 C   0  0  0  0  0  0  0  0  0  0  0  0
    7.1000   -3.0667    0.0000 C   0  0  0  0  0  0  0  0  0  0  0  0
    4.8917   -4.2125    0.0000 O   0  0  0  0  0  0  0  0  0  0  0  0
    2.2417   -3.2625    0.0000 C   0  0  0  0  0  0  0  0  0  0  0  0
    8.4792   -3.6000    0.0000 O   0  0  0  0  0  0  0  0  0  0  0  0
    8.7125   -5.8750    0.0000 C   0  0  0  0  0  0  0  0  0  0  0  0
    9.4042   -5.3667    0.0000 C   0  0  0  0  0  0  0  0  0  0  0  0
    4.2000   -1.3042    0.0000 C   0  0  0  0  0  0  0  0  0  0  0  0
    5.0000   -1.9167    0.0000 C   0  0  0  0  0  0  0  0  0  0  0  0
    7.9417   -5.6417    0.0000 C   0  0  0  0  0  0  0  0  0  0  0  0
   10.3750   -5.6750    0.0000 C   0  0  0  0  0  0  0  0  0  0  0  0
    7.7542   -4.8917    0.0000 C   0  0  0  0  0  0  0  0  0  0  0  0
    2.6542   -3.9750    0.0000 C   0  0  0  0  0  0  0  0  0  0  0  0
    1.4125   -3.2625    0.0000 C   0  0  0  0  0  0  0  0  0  0  0  0
  2  1  1  0
  3  1  1  0
  3  4  1  6
  2  5  1  1
  6  8  2  0
  7 11  1  0
  8 10  1  0
  9  4  1  0
 10  9  1  1
 11 10  1  0
 12  4  2  0
 13  5  2  0
 14  7  2  0
 15 19  2  0
 16 15  1  0
 17  1  1  0
 18  1  1  0
 19 21  1  0
 20 16  2  0
 21  6  1  0
 22 13  1  0
 23 13  1  0
  2  3  1  0
  7  6  1  0
M  END
>  <ID>  (1034) 


>  <MOLENAME>  (1034) 
PYRETHRINS

>  <therap>  (1034) 
insecticide, Na channel toxin

>  <ref>  (1034) 
J Chem Soc(C) 1966:332; Chem Commun 1972:1276 

>  <cas#>  (1034) 
121-21-1

>  <source>  (1034) 
Chrysanthemum cinerariaefolium [R = COOMe and R = Me]

>  <status>  (1034) 
USP

>  <tradename>  (1034) 
DRIONE

>  <SMILES>  (1034) 
C=C/C=C\CC1=C[C@@H](OC(=O)[C@@H]2[C@@H](C=C(C)C)C2(C)C)CC1=O

>  <standardized_failed>  (1034) 
False

$$$$

     RDKit          2D

 27 30  0  0  0  0  0  0  0  0999 V2000
    5.6167    1.1333    0.0000 N   0  0  0  0  0  0  0  0  0  0  0  0
    5.1292    0.4625    0.0000 C   0  0  0  0  0  0  0  0  0  0  0  0
    5.1250    1.8000    0.0000 C   0  0  0  0  0  0  0  0  0  0  0  0
    4.3417    1.5375    0.0000 C   0  0  0  0  0  0  0  0  0  0  0  0
    4.3417    0.7125    0.0000 C   0  0  0  0  0  0  0  0  0  0  0  0
    5.3917   -0.3250    0.0000 O   0  0  0  0  0  0  0  0  0  0  0  0
    4.8417   -0.9375    0.0000 C   0  0  0  0  0  0  0  0  0  0  0  0
    6.4375    1.1375    0.0000 C   0  0  0  0  0  0  0  0  0  0  0  0
    5.1042   -1.7250    0.0000 N   0  0  0  0  0  0  0  0  0  0  0  0
    6.8542    0.4250    0.0000 N   0  0  0  0  0  0  0  0  0  0  0  0
    3.6250    1.9542    0.0000 N   0  0  0  0  0  0  0  0  0  0  0  0
    3.6250    0.2958    0.0000 N   0  0  0  0  0  0  0  0  0  0  0  0
    5.6167   -3.2875    0.0000 N   0  0  0  0  0  0  0  0  0  0  0  0
    5.3750    2.5833    0.0000 O   0  0  0  0  0  0  0  0  0  0  0  0
    4.0375   -0.7750    0.0000 O   0  0  0  0  0  0  0  0  0  0  0  0
    5.9125   -1.8875    0.0000 C   0  0  0  0  0  0  0  0  0  0  0  0
    4.5542   -2.3375    0.0000 C   0  0  0  0  0  0  0  0  0  0  0  0
    6.8417    1.8500    0.0000 C   0  0  0  0  0  0  0  0  0  0  0  0
    4.8042   -3.1125    0.0000 C   0  0  0  0  0  0  0  0  0  0  0  0
    6.1667   -2.6750    0.0000 C   0  0  0  0  0  0  0  0  0  0  0  0
    7.6792    0.4250    0.0000 C   0  0  0  0  0  0  0  0  0  0  0  0
    8.0875    1.1458    0.0000 C   0  0  0  0  0  0  0  0  0  0  0  0
    7.6667    1.8625    0.0000 C   0  0  0  0  0  0  0  0  0  0  0  0
    8.9125    1.1500    0.0000 Cl  0  0  0  0  0  0  0  0  0  0  0  0
    5.8750   -4.0708    0.0000 C   0  0  0  0  0  0  0  0  0  0  0  0
    2.9125    0.7083    0.0000 C   0  0  0  0  0  0  0  0  0  0  0  0
    2.9125    1.5333    0.0000 C   0  0  0  0  0  0  0  0  0  0  0  0
  2  1  1  0
  3  1  1  0
  4  3  1  0
  5  2  1  0
  2  6  1  1
  7  6  1  0
  8  1  1  0
  9  7  1  0
 10  8  2  0
 11  4  2  0
 12  5  2  0
 13 19  1  0
 14  3  2  0
 15  7  2  0
 16  9  1  0
 17  9  1  0
 18  8  1  0
 19 17  1  0
 20 16  1  0
 21 10  1  0
 22 23  1  0
 23 18  2  0
 24 22  1  0
 25 13  1  0
 26 12  1  0
 27 11  1  0
  4  5  1  0
 21 22  2  0
 27 26  2  0
 20 13  1  0
M  END
>  <ID>  (1035) 


>  <MOLENAME>  (1035) 
ESZOPICLONE

>  <therap>  (1035) 
hypnotic, sedative

>  <ref>  (1035) 
Int J Clin Psychopharmacol 5:147 (1990); Drugs 55:277 (1998)

>  <cas#>  (1035) 
138729-47-2, 43200-80-2

>  <source>  (1035) 
synthetic; RP-27267

>  <status>  (1035) 
USAN, INN, BAN, JAN

>  <tradename>  (1035) 
LUNESTA

>  <SMILES>  (1035) 
CN1CCN(C(=O)O[C@H]2c3nccnc3C(=O)N2c2ncc(Cl)cc2)CC1

>  <standardized_failed>  (1035) 
False

$$$$

     RDKit          2D

 23 26  0  0  0  0  0  0  0  0999 V2000
    6.5125   -3.2250    0.0000 C   0  0  0  0  0  0  0  0  0  0  0  0
    5.7250   -2.9792    0.0000 N   0  0  0  0  0  0  0  0  0  0  0  0
    6.8167   -3.9917    0.0000 C   0  0  0  0  0  0  0  0  0  0  0  0
    5.5792   -4.8292    0.0000 N   0  0  0  0  0  0  0  0  0  0  0  0
    7.1500   -2.7000    0.0000 N   0  0  0  0  0  0  0  0  0  0  0  0
    5.0417   -3.4500    0.0000 C   0  0  0  0  0  0  0  0  0  0  0  0
    6.4042   -4.7042    0.0000 C   0  0  0  0  0  0  0  0  0  0  0  0
    4.9792   -4.2542    0.0000 C   0  0  0  0  0  0  0  0  0  0  0  0
    4.3625   -2.9875    0.0000 C   0  0  0  0  0  0  0  0  0  0  0  0
    8.5667   -1.8625    0.0000 N   0  0  0  0  0  0  0  0  0  0  0  0
    7.8667   -3.1042    0.0000 C   0  0  0  0  0  0  0  0  0  0  0  0
    7.1375   -1.8792    0.0000 C   0  0  0  0  0  0  0  0  0  0  0  0
    4.2417   -4.6250    0.0000 C   0  0  0  0  0  0  0  0  0  0  0  0
    3.6167   -3.3417    0.0000 C   0  0  0  0  0  0  0  0  0  0  0  0
    8.5792   -2.6792    0.0000 C   0  0  0  0  0  0  0  0  0  0  0  0
    7.8417   -1.4542    0.0000 C   0  0  0  0  0  0  0  0  0  0  0  0
    7.6417   -3.9917    0.0000 C   0  0  0  0  0  0  0  0  0  0  0  0
    3.5542   -4.1542    0.0000 C   0  0  0  0  0  0  0  0  0  0  0  0
    2.9250   -2.8792    0.0000 Cl  0  0  0  0  0  0  0  0  0  0  0  0
    6.8167   -5.4250    0.0000 C   0  0  0  0  0  0  0  0  0  0  0  0
    9.2917   -1.4417    0.0000 C   0  0  0  0  0  0  0  0  0  0  0  0
    8.0542   -4.7042    0.0000 C   0  0  0  0  0  0  0  0  0  0  0  0
    7.6417   -5.4250    0.0000 C   0  0  0  0  0  0  0  0  0  0  0  0
  2  1  2  0
  3  1  1  0
  4  7  1  0
  5  1  1  0
  6  2  1  0
  7  3  2  0
  8  6  2  0
  9  6  1  0
 10 16  1  0
 11  5  1  0
 12  5  1  0
 13  8  1  0
 14  9  2  0
 15 11  1  0
 16 12  1  0
 17  3  1  0
 18 14  1  0
 19 14  1  0
 20  7  1  0
 21 10  1  0
 22 17  2  0
 23 22  1  0
 15 10  1  0
  8  4  1  0
 20 23  2  0
 13 18  2  0
M  END
>  <ID>  (1036) 


>  <MOLENAME>  (1036) 
CLOZAPINE

>  <therap>  (1036) 
antipsychotic

>  <ref>  (1036) 
N Eng J Med 324:746 (1991); Anal Profiles Drug Subs Excip 22:145 (1993)

>  <cas#>  (1036) 
5786-21-0

>  <source>  (1036) 
synthetic; HF-1854

>  <status>  (1036) 
USP, INN, BAN

>  <tradename>  (1036) 
CLOZARIL

>  <SMILES>  (1036) 
CN1CCN(C2=Nc3c(ccc(Cl)c3)Nc3c2cccc3)CC1

>  <standardized_failed>  (1036) 
False

$$$$

     RDKit          2D

 13 12  0  0  0  0  0  0  0  0999 V2000
    7.1542   -6.0542    0.0000 C   0  0  0  0  0  0  0  0  0  0  0  0
    7.8667   -5.6417    0.0000 O   0  0  0  0  0  0  0  0  0  0  0  0
    7.1542   -6.8792    0.0000 O   0  0  0  0  0  0  0  0  0  0  0  0
    9.0792   -6.1917    0.0000 Na  0  0  0  0  0 15  0  0  0  0  0  0
    4.3042   -6.0667    0.0000 C   0  0  0  0  0  0  0  0  0  0  0  0
    6.4417   -5.6500    0.0000 C   0  0  0  0  0  0  0  0  0  0  0  0
    5.7292   -6.0625    0.0000 C   0  0  0  0  0  0  0  0  0  0  0  0
    5.0167   -5.6542    0.0000 C   0  0  0  0  0  0  0  0  0  0  0  0
    3.5875   -5.6542    0.0000 C   0  0  0  0  0  0  0  0  0  0  0  0
    4.3042   -6.8917    0.0000 C   0  0  0  0  0  0  0  0  0  0  0  0
    2.8750   -6.0667    0.0000 C   0  0  0  0  0  0  0  0  0  0  0  0
    3.5875   -7.3042    0.0000 C   0  0  0  0  0  0  0  0  0  0  0  0
    2.8750   -6.8917    0.0000 C   0  0  0  0  0  0  0  0  0  0  0  0
  2  1  1  0
  3  1  2  0
  5  8  1  0
  6  1  1  0
  7  6  1  0
  8  7  1  0
  9  5  2  0
 10  5  1  0
 11  9  1  0
 12 10  2  0
 13 11  2  0
 13 12  1  0
M  CHG  2   2  -1   4   1
M  END
>  <ID>  (1037) 


>  <MOLENAME>  (1037) 
SODIUM PHENYLBUTYRATE

>  <therap>  (1037) 
antihyperammonemic,antineoplastic

>  <ref>  (1037) 
Am J Respir Crit Care 157:484 (1998); blood 85:43 (1995); Clin Cancer Res 2:379 (1996)

>  <cas#>  (1037) 
1716-12-7

>  <source>  (1037) 
synthetic

>  <status>  (1037) 
USAN, BAN

>  <tradename>  (1037) 
BUPHENYL

>  <SMILES>  (1037) 
O=C(O)CCCc1ccccc1

>  <standardized_failed>  (1037) 
False

$$$$

     RDKit          2D

 15 16  0  0  0  0  0  0  0  0999 V2000
    4.1292   -0.8917    0.0000 O   0  0  0  0  0  0  0  0  0  0  0  0
    3.4167   -1.3042    0.0000 C   0  0  0  0  0  0  0  0  0  0  0  0
    1.9917   -2.1375    0.0000 C   0  0  0  0  0  0  0  0  0  0  0  0
    4.8500   -1.3000    0.0000 C   0  0  0  0  0  0  0  0  0  0  0  0
    3.4167   -2.1375    0.0000 C   0  0  0  0  0  0  0  0  0  0  0  0
    2.7042   -0.8917    0.0000 C   0  0  0  0  0  0  0  0  0  0  0  0
    2.7042   -2.5500    0.0000 C   0  0  0  0  0  0  0  0  0  0  0  0
    1.9917   -1.3125    0.0000 C   0  0  0  0  0  0  0  0  0  0  0  0
    5.5625   -0.8875    0.0000 C   0  0  0  0  0  0  0  0  0  0  0  0
    1.2750   -2.5500    0.0000 O   0  0  0  0  0  0  0  0  0  0  0  0
    5.5542   -0.0667    0.0000 C   0  0  0  0  0  0  0  0  0  0  0  0
    6.2750   -1.3000    0.0000 C   0  0  0  0  0  0  0  0  0  0  0  0
    6.9875   -0.8792    0.0000 C   0  0  0  0  0  0  0  0  0  0  0  0
    6.2625    0.3500    0.0000 C   0  0  0  0  0  0  0  0  0  0  0  0
    6.9875   -0.0542    0.0000 C   0  0  0  0  0  0  0  0  0  0  0  0
  2  1  1  0
  3  8  2  0
  4  1  1  0
  5  2  1  0
  6  2  2  0
  7  5  2  0
  8  6  1  0
  9  4  1  0
 10  3  1  0
 11  9  2  0
 12  9  1  0
 13 12  2  0
 14 11  1  0
 15 13  1  0
  3  7  1  0
 14 15  2  0
M  END
>  <ID>  (1038) 


>  <MOLENAME>  (1038) 
MONOBENZONE

>  <therap>  (1038) 
depigmentor

>  <ref>  (1038) 
Pigm. Cell Melanoma Res. (2011), 24(4), 673-9, ; J. Eur. Acad. Dermatol. Venereol. (2011), 25(7), 749-57, ; Cutis (1983), 32(4), 343-4, 346

>  <cas#>  (1038) 
103-16-2

>  <source>  (1038) 
synthetic

>  <status>  (1038) 
USP, INN

>  <tradename>  (1038) 
BENOQUIN

>  <SMILES>  (1038) 
Oc1ccc(OCc2ccccc2)cc1

>  <standardized_failed>  (1038) 
False

$$$$

     RDKit          2D

 35 35  0  0  0  0  0  0  0  0999 V2000
    5.0417   -1.3542    0.0000 N   0  0  0  0  0  0  0  0  0  0  0  0
    4.3292   -1.7667    0.0000 C   0  0  0  0  0  0  0  0  0  0  0  0
    5.1292   -0.5292    0.0000 C   0  0  0  0  0  0  0  0  0  0  0  0
    2.9042   -1.7667    0.0000 N   0  0  0  0  0  0  0  0  0  0  0  0
    3.6167   -1.3542    0.0000 C   0  0  0  0  0  0  0  0  0  0  0  0
    4.5167    0.0208    0.0000 C   0  0  0  0  0  0  0  0  0  0  0  0
    2.1917   -0.5292    0.0000 C   0  0  0  0  0  0  0  0  0  0  0  0
    2.1917   -1.3542    0.0000 C   0  0  0  0  0  0  0  0  0  0  0  0
    8.8292   -1.4500    0.0000 C   0  0  0  0  0  0  0  0  0  0  0  0
    7.7000   -2.1042    0.0000 C   0  0  0  0  0  0  0  0  0  0  0  0
    7.7000   -1.4500    0.0000 C   0  0  0  0  0  0  0  0  0  0  0  0
    8.2667   -1.1167    0.0000 C   0  0  0  0  0  0  0  0  0  0  0  0
    4.3292   -2.5917    0.0000 O   0  0  0  0  0  0  0  0  0  0  0  0
    3.7292   -0.2292    0.0000 O   0  0  0  0  0  0  0  0  0  0  0  0
    1.4750   -0.1167    0.0000 O   0  0  0  0  0  0  0  0  0  0  0  0
    9.4042   -1.1167    0.0000 O   0  0  0  0  0  0  0  0  0  0  0  0
    8.2667   -2.4375    0.0000 O   0  0  0  0  0  0  0  0  0  0  0  0
    1.4792   -1.7667    0.0000 C   0  0  0  0  0  0  0  0  0  0  0  0
    5.8000   -1.6792    0.0000 C   0  0  0  0  0  0  0  0  0  0  0  0
    4.6875    0.8333    0.0000 O   0  0  0  0  0  0  0  0  0  0  0  0
    2.9042   -0.1167    0.0000 O   0  0  0  0  0  0  0  0  0  0  0  0
    7.1292   -2.4375    0.0000 O   0  0  0  0  0  0  0  0  0  0  0  0
    8.8292   -2.1042    0.0000 O   0  0  0  0  0  0  0  0  0  0  0  0
    0.7667   -1.3667    0.0000 C   0  0  0  0  0  0  0  0  0  0  0  0
    5.9375   -0.3542    0.0000 C   0  0  0  0  0  0  0  0  0  0  0  0
    0.0542   -1.7792    0.0000 C   0  0  0  0  0  0  0  0  0  0  0  0
    6.3500   -1.0667    0.0000 C   0  0  0  0  0  0  0  0  0  0  0  0
    3.3167   -0.6542    0.0000 C   0  0  0  0  0  0  0  0  0  0  0  0
    2.9042    0.7083    0.0000 C   0  0  0  0  0  0  0  0  0  0  0  0
    0.0542   -2.6167    0.0000 C   0  0  0  0  0  0  0  0  0  0  0  0
   -0.6583   -1.3792    0.0000 C   0  0  0  0  0  0  0  0  0  0  0  0
    3.6167    1.1208    0.0000 C   0  0  0  0  0  0  0  0  0  0  0  0
   -1.3708   -1.7792    0.0000 C   0  0  0  0  0  0  0  0  0  0  0  0
   -0.6625   -3.0167    0.0000 C   0  0  0  0  0  0  0  0  0  0  0  0
   -1.3708   -2.6042    0.0000 C   0  0  0  0  0  0  0  0  0  0  0  0
  2  1  1  0
  3  1  1  0
  4  5  1  0
  5  2  1  0
  3  6  1  6
  8  7  1  0
  8  4  1  0
 10 11  1  0
 11 12  2  0
 12  9  1  0
 13  2  2  0
 14  6  2  0
 15  7  2  0
 16  9  2  0
 17 10  2  0
  8 18  1  1
 19  1  1  0
 20  6  1  0
 21  7  1  0
 22 10  1  0
 23  9  1  0
 24 18  1  0
 25  3  1  0
 26 24  1  0
 27 19  1  0
  5 28  1  1
 29 21  1  0
 30 26  2  0
 31 26  1  0
 32 29  1  0
 33 31  2  0
 34 30  1  0
 35 33  1  0
 27 25  1  0
 35 34  2  0
M  END
>  <ID>  (1039) 


>  <MOLENAME>  (1039) 
ENALAPRIL MALEATE

>  <therap>  (1039) 
ACE inhibitor, antihypertensive

>  <ref>  (1039) 
J Pharmacol Exp Ther 216:552, 558 (1981); J Cardiovasc Pharmacol 15 Suppl 3: S26 (1990); N Engl J Med 362:228 (2010)

>  <cas#>  (1039) 
76095-16-4, 75847-73-3 [enalapril]

>  <source>  (1039) 
synthetic

>  <status>  (1039) 
USP, INN, BAN, JAN

>  <tradename>  (1039) 
VASOTEC

>  <SMILES>  (1039) 
CCOC(=O)[C@H](CCc1ccccc1)N[C@@H](C)C(=O)N1CCC[C@H]1C(=O)O

>  <standardized_failed>  (1039) 
False

$$$$

     RDKit          2D

 43 45  0  0  0  0  0  0  0  0999 V2000
    7.2042   -3.6000    0.0000 C   0  0  0  0  0  0  0  0  0  0  0  0
    6.4875   -4.8417    0.0000 C   0  0  0  0  0  0  0  0  0  0  0  0
    7.2042   -4.4292    0.0000 C   0  0  0  0  0  0  0  0  0  0  0  0
    5.0625   -4.8417    0.0000 C   0  0  0  0  0  0  0  0  0  0  0  0
    5.7750   -4.4292    0.0000 C   0  0  0  0  0  0  0  0  0  0  0  0
    6.4875   -3.1875    0.0000 C   0  0  0  0  0  0  0  0  0  0  0  0
    5.7750   -3.6000    0.0000 C   0  0  0  0  0  0  0  0  0  0  0  0
    5.0625   -5.6667    0.0000 C   0  0  0  0  0  0  0  0  0  0  0  0
    7.9250   -3.1792    0.0000 C   0  0  0  0  0  0  0  0  0  0  0  0
    4.3417   -6.0792    0.0000 C   0  0  0  0  0  0  0  0  0  0  0  0
    8.6500   -1.9417    0.0000 C   0  0  0  0  0  0  0  0  0  0  0  0
    7.9250   -2.3542    0.0000 C   0  0  0  0  0  0  0  0  0  0  0  0
    8.6417   -3.6042    0.0000 C   0  0  0  0  0  0  0  0  0  0  0  0
    3.6292   -5.6667    0.0000 C   0  0  0  0  0  0  0  0  0  0  0  0
    9.2292   -1.3542    0.0000 C   0  0  0  0  0  0  0  0  0  0  0  0
    6.4875   -5.6667    0.0000 C   0  0  0  0  0  0  0  0  0  0  0  0
    4.3417   -4.4292    0.0000 C   0  0  0  0  0  0  0  0  0  0  0  0
    7.9167   -4.8417    0.0000 C   0  0  0  0  0  0  0  0  0  0  0  0
    5.7750   -6.0792    0.0000 C   0  0  0  0  0  0  0  0  0  0  0  0
    2.8042   -5.6667    0.0000 O   0  0  0  0  0  0  0  0  0  0  0  0
    2.3917   -4.9500    0.0000 C   0  0  0  0  0  0  0  0  0  0  0  0
    0.3292   -4.2375    0.0000 C   0  0  0  0  0  0  0  0  0  0  0  0
    5.0542   -3.1875    0.0000 O   0  0  0  0  0  0  0  0  0  0  0  0
    8.6375   -4.4292    0.0000 C   0  0  0  0  0  0  0  0  0  0  0  0
    3.6292   -4.8417    0.0000 C   0  0  0  0  0  0  0  0  0  0  0  0
   10.0292   -1.5542    0.0000 O   0  0  0  0  0  0  0  0  0  0  0  0
    9.3667   -2.3625    0.0000 C   0  0  0  0  0  0  0  0  0  0  0  0
    9.3542   -3.1917    0.0000 C   0  0  0  0  0  0  0  0  0  0  0  0
   -0.0833   -4.9500    0.0000 O   0  0  0  0  0  0  0  0  0  0  0  0
    9.0125   -0.5542    0.0000 O   0  0  0  0  0  0  0  0  0  0  0  0
    2.8042   -4.2375    0.0000 O   0  0  0  0  0  0  0  0  0  0  0  0
   -0.0833   -3.5167    0.0000 O   0  0  0  0  0  0  0  0  0  0  0  0
    6.4792   -4.0167    0.0000 C   0  0  0  0  0  0  0  0  0  0  0  0
    5.0542   -4.0167    0.0000 C   0  0  0  0  0  0  0  0  0  0  0  0
    7.2000   -5.2500    0.0000 C   0  0  0  0  0  0  0  0  0  0  0  0
    1.5667   -4.9500    0.0000 C   0  0  0  0  0  0  0  0  0  0  0  0
    1.1542   -4.2375    0.0000 C   0  0  0  0  0  0  0  0  0  0  0  0
    3.7542   -6.6667    0.0000 C   0  0  0  0  0  0  0  0  0  0  0  0
    4.9250   -6.6667    0.0000 C   0  0  0  0  0  0  0  0  0  0  0  0
   11.1292   -1.5542    0.0000 Na  0  0  0  0  0 15  0  0  0  0  0  0
   -1.3500   -4.9292    0.0000 Na  0  0  0  0  0 15  0  0  0  0  0  0
    8.0625   -1.3542    0.0000 C   0  0  0  0  0  0  0  0  0  0  0  0
    8.6375   -2.7792    0.0000 C   0  0  0  0  0  0  0  0  0  0  0  0
  2  3  1  0
  3  1  1  0
  4  5  1  0
  5  7  1  0
  6  1  2  0
  7  6  1  0
  8  4  1  0
  9  1  1  0
 10  8  1  0
 11 12  1  0
  9 12  1  6
 13  9  1  0
 14 25  1  0
 11 15  1  0
 16  2  1  0
 17  4  1  0
 18  3  1  0
 19 16  1  0
 14 20  1  1
 21 20  1  0
 22 37  1  0
 23  7  2  0
 24 13  1  0
 25 17  1  0
 26 15  1  0
 27 28  1  0
 28 13  1  0
 29 22  1  0
 30 15  2  0
 31 21  2  0
 32 22  2  0
  2 33  1  1
  4 34  1  1
  3 35  1  6
 36 21  1  0
 37 36  1  0
 38 10  1  0
 39 10  1  0
 11 42  1  6
 13 43  1  1
 18 24  1  0
  2  5  1  0
 27 11  1  0
  8 19  1  0
 14 10  1  0
M  CHG  4  26  -1  29  -1  40   1  41   1
M  END
>  <ID>  (1040) 


>  <MOLENAME>  (1040) 
CARBENOXOLONE SODIUM

>  <therap>  (1040) 
antiinflammatory, antisecretory, antiulcer

>  <ref>  (1040) 
Pharmacol Res Commun 16:875 (1984); Anal Profiles Drug Subs Excip 24:1 (1996)

>  <cas#>  (1040) 
7421-40-1, 5697-56-3 [carbenoxolone]

>  <source>  (1040) 
semisynthetic

>  <status>  (1040) 
USAN, INN, BAN, JAN

>  <tradename>  (1040) 
SANODIN

>  <SMILES>  (1040) 
CC1(C)C2CC[C@]3(C)C(C(=O)C=C4[C@@H]5C[C@@](C)(C(=O)O)CC[C@]5(C)CC[C@]43C)[C@@]2(C)CC[C@@H]1OC(=O)CCC(=O)O

>  <standardized_failed>  (1040) 
False

$$$$

     RDKit          2D

 49 54  0  0  0  0  0  0  0  0999 V2000
    1.4083   -3.4292    0.0000 N   0  0  0  0  0  0  0  0  0  0  0  0
    7.1125   -3.4000    0.0000 N   0  0  0  0  0  0  0  0  0  0  0  0
    2.1208   -3.8375    0.0000 C   0  0  0  0  0  0  0  0  0  0  0  0
    6.4000   -3.8167    0.0000 C   0  0  0  0  0  0  0  0  0  0  0  0
    1.3208   -2.6083    0.0000 N   0  0  0  0  0  0  0  0  0  0  0  0
    0.6542   -3.7625    0.0000 N   0  0  0  0  0  0  0  0  0  0  0  0
    7.8667   -3.7292    0.0000 N   0  0  0  0  0  0  0  0  0  0  0  0
    7.1917   -2.5750    0.0000 N   0  0  0  0  0  0  0  0  0  0  0  0
    0.1000   -3.1500    0.0000 C   0  0  0  0  0  0  0  0  0  0  0  0
    0.5125   -2.4375    0.0000 C   0  0  0  0  0  0  0  0  0  0  0  0
    7.9958   -2.4000    0.0000 C   0  0  0  0  0  0  0  0  0  0  0  0
    8.4125   -3.1125    0.0000 C   0  0  0  0  0  0  0  0  0  0  0  0
    2.8333   -3.4250    0.0000 C   0  0  0  0  0  0  0  0  0  0  0  0
    5.6833   -3.4125    0.0000 C   0  0  0  0  0  0  0  0  0  0  0  0
    3.5500   -3.8375    0.0000 C   0  0  0  0  0  0  0  0  0  0  0  0
    4.9792   -3.8292    0.0000 C   0  0  0  0  0  0  0  0  0  0  0  0
    2.1208   -4.6667    0.0000 C   0  0  0  0  0  0  0  0  0  0  0  0
    6.4083   -4.6458    0.0000 C   0  0  0  0  0  0  0  0  0  0  0  0
    5.6917   -5.0625    0.0000 C   0  0  0  0  0  0  0  0  0  0  0  0
    2.8333   -5.0792    0.0000 C   0  0  0  0  0  0  0  0  0  0  0  0
    4.2625   -3.4208    0.0000 C   0  0  0  0  0  0  0  0  0  0  0  0
    2.8333   -5.9042    0.0000 C   0  0  0  0  0  0  0  0  0  0  0  0
    5.6958   -5.8875    0.0000 C   0  0  0  0  0  0  0  0  0  0  0  0
    3.5500   -4.6667    0.0000 C   0  0  0  0  0  0  0  0  0  0  0  0
    4.9792   -4.6542    0.0000 C   0  0  0  0  0  0  0  0  0  0  0  0
    9.2333   -3.1083    0.0000 C   0  0  0  0  0  0  0  0  0  0  0  0
    8.4042   -1.6875    0.0000 C   0  0  0  0  0  0  0  0  0  0  0  0
    0.1042   -1.7292    0.0000 C   0  0  0  0  0  0  0  0  0  0  0  0
   -0.7167   -3.1542    0.0000 C   0  0  0  0  0  0  0  0  0  0  0  0
    2.1167   -6.3125    0.0000 C   0  0  0  0  0  0  0  0  0  0  0  0
    6.4042   -6.2917    0.0000 C   0  0  0  0  0  0  0  0  0  0  0  0
   -1.1292   -2.4458    0.0000 C   0  0  0  0  0  0  0  0  0  0  0  0
    9.6417   -2.3917    0.0000 C   0  0  0  0  0  0  0  0  0  0  0  0
    9.2208   -1.6792    0.0000 C   0  0  0  0  0  0  0  0  0  0  0  0
   -0.7208   -1.7292    0.0000 C   0  0  0  0  0  0  0  0  0  0  0  0
    1.4042   -5.9000    0.0000 C   0  0  0  0  0  0  0  0  0  0  0  0
    7.1167   -5.8792    0.0000 C   0  0  0  0  0  0  0  0  0  0  0  0
    2.8292   -2.6000    0.0000 O   0  0  0  0  0  0  0  0  0  0  0  0
    5.6792   -2.5875    0.0000 O   0  0  0  0  0  0  0  0  0  0  0  0
    3.5458   -6.3208    0.0000 C   0  0  0  0  0  0  0  0  0  0  0  0
    2.8292   -6.7292    0.0000 C   0  0  0  0  0  0  0  0  0  0  0  0
    4.9833   -6.3042    0.0000 C   0  0  0  0  0  0  0  0  0  0  0  0
    5.6917   -6.7125    0.0000 C   0  0  0  0  0  0  0  0  0  0  0  0
    0.6917   -6.3042    0.0000 C   0  0  0  0  0  0  0  0  0  0  0  0
    7.8292   -6.2917    0.0000 C   0  0  0  0  0  0  0  0  0  0  0  0
    1.4083   -5.0750    0.0000 C   0  0  0  0  0  0  0  0  0  0  0  0
    1.4042   -6.7250    0.0000 C   0  0  0  0  0  0  0  0  0  0  0  0
    7.1167   -5.0542    0.0000 C   0  0  0  0  0  0  0  0  0  0  0  0
    7.1167   -6.7042    0.0000 C   0  0  0  0  0  0  0  0  0  0  0  0
  2  4  1  0
  3  1  1  0
  4 14  2  0
  5  1  1  0
  6  1  1  0
  7  2  1  0
  8  2  1  0
  9  6  2  0
 10  5  2  0
 11  8  2  0
 12  7  2  0
 13  3  2  0
 14 16  1  0
 15 13  1  0
 16 21  1  0
 17  3  1  0
 18 19  2  0
 19 25  1  0
 20 17  2  0
 21 15  1  0
 22 20  1  0
 23 19  1  0
 24 20  1  0
 25 16  2  0
 26 12  1  0
 27 11  1  0
 28 10  1  0
 29  9  1  0
 30 22  1  0
 31 23  1  0
 32 29  2  0
 33 26  2  0
 34 27  2  0
 35 28  2  0
 36 30  1  0
 37 31  1  0
 38 13  1  0
 39 14  1  0
 40 22  1  0
 41 22  1  0
 42 23  1  0
 43 23  1  0
 44 36  1  0
 45 37  1  0
 46 36  1  0
 47 36  1  0
 48 37  1  0
 49 37  1  0
 10  9  1  0
 32 35  1  0
 15 24  2  0
  4 18  1  0
 12 11  1  0
 34 33  1  0
M  END
>  <ID>  (1041) 


>  <MOLENAME>  (1041) 
BISOCTRIZOLE

>  <therap>  (1041) 
sunscreen

>  <ref>  (1041) 
Photoderm Photoimmunol Photomed 19:242 (2003); J Colloid Interface Sci 276:354 (2004)

>  <cas#>  (1041) 
103597-45-1

>  <source>  (1041) 
synthetic; MBBT, FAT-75634

>  <status>  (1041) 
USP, INN

>  <tradename>  (1041) 
TINOSORB M

>  <SMILES>  (1041) 
CC(C)(C)CC(C)(C)c1cc(-n2nc3ccccc3n2)c(O)c(Cc2cc(C(C)(C)CC(C)(C)C)cc(-n3nc4ccccc4n3)c2O)c1

>  <standardized_failed>  (1041) 
False

$$$$

     RDKit          2D

 23 23  0  0  0  0  0  0  0  0999 V2000
    2.9875   -2.3417    0.0000 C   0  0  0  0  0  0  0  0  0  0  0  0
    5.1250   -1.9250    0.0000 N   0  0  0  0  0  0  0  0  0  0  0  0
    4.4125   -2.3375    0.0000 C   0  0  0  0  0  0  0  0  0  0  0  0
    2.9875   -3.1708    0.0000 C   0  0  0  0  0  0  0  0  0  0  0  0
    2.2708   -1.9292    0.0000 C   0  0  0  0  0  0  0  0  0  0  0  0
    3.7000   -1.9292    0.0000 C   0  0  0  0  0  0  0  0  0  0  0  0
    1.5583   -3.1708    0.0000 C   0  0  0  0  0  0  0  0  0  0  0  0
    9.3958   -1.0917    0.0000 C   0  0  0  0  0  0  0  0  0  0  0  0
    7.9750   -1.9167    0.0000 C   0  0  0  0  0  0  0  0  0  0  0  0
    1.5583   -2.3417    0.0000 C   0  0  0  0  0  0  0  0  0  0  0  0
    2.2708   -3.5833    0.0000 C   0  0  0  0  0  0  0  0  0  0  0  0
    6.0250   -0.1542    0.0000 Cl  0  0  0  0  0  0  0  0  0  0  0  0
    7.2625   -2.3292    0.0000 C   0  0  0  0  0  0  0  0  0  0  0  0
    8.6792   -0.6833    0.0000 C   0  0  0  0  0  0  0  0  0  0  0  0
    9.4000   -1.9167    0.0000 C   0  0  0  0  0  0  0  0  0  0  0  0
    7.9708   -1.0958    0.0000 C   0  0  0  0  0  0  0  0  0  0  0  0
    8.6875   -2.3292    0.0000 C   0  0  0  0  0  0  0  0  0  0  0  0
    3.6958   -1.1042    0.0000 O   0  0  0  0  0  0  0  0  0  0  0  0
    6.5500   -1.9167    0.0000 C   0  0  0  0  0  0  0  0  0  0  0  0
   10.1125   -0.6792    0.0000 O   0  0  0  0  0  0  0  0  0  0  0  0
    0.8417   -3.5833    0.0000 O   0  0  0  0  0  0  0  0  0  0  0  0
    5.8375   -2.3292    0.0000 C   0  0  0  0  0  0  0  0  0  0  0  0
    5.8375   -3.1542    0.0000 C   0  0  0  0  0  0  0  0  0  0  0  0
  2  3  1  0
  3  6  1  0
  4  1  2  0
  5  1  1  0
  6  1  1  0
  7 11  2  0
  8 14  2  0
  9 13  1  0
 10  5  2  0
 11  4  1  0
 13 19  1  0
 14 16  1  0
 15 17  2  0
 16  9  2  0
 17  9  1  0
 18  6  1  0
 19 22  1  0
 20  8  1  0
 21  7  1  0
 22  2  1  0
 23 22  1  0
  7 10  1  0
  8 15  1  0
M  END
>  <ID>  (1042) 


>  <MOLENAME>  (1042) 
RACTOPAMINE HYDROCHLORIDE

>  <therap>  (1042) 
beta-adrenergic agonist, growth stimulant

>  <ref>  (1042) 
J Anim Sci 71:2439 (1993); 72:75 (1994)

>  <cas#>  (1042) 
90274-24-1

>  <source>  (1042) 
synthetic; EL-737, LYO-31537

>  <status>  (1042) 
USAN, INN

>  <tradename>  (1042) 
OPTAFLEXX

>  <SMILES>  (1042) 
CC(CCc1ccc(O)cc1)NCC(O)c1ccc(O)cc1

>  <standardized_failed>  (1042) 
False

$$$$

     RDKit          2D

  3  2  0  0  0  0  0  0  0  0999 V2000
    3.9542   -4.4625    0.0000 Ca  0  0  0  0  0  2  0  0  0  0  0  0
    4.6667   -4.0500    0.0000 Cl  0  0  0  0  0  0  0  0  0  0  0  0
    3.2417   -4.8750    0.0000 Cl  0  0  0  0  0  0  0  0  0  0  0  0
  2  1  1  0
  3  1  1  0
M  END
>  <ID>  (1043) 


>  <MOLENAME>  (1043) 
CALCIUM CHLORIDE

>  <therap>  (1043) 
calcium replenisher

>  <ref>  (1043) 
nan

>  <cas#>  (1043) 
10043-52-4

>  <source>  (1043) 
mineral

>  <status>  (1043) 
USP

>  <tradename>  (1043) 
nan

>  <SMILES>  (1043) 
Cl[Ca]Cl

>  <standardized_failed>  (1043) 
False

$$$$

     RDKit          2D

 10  8  0  0  0  0  0  0  0  0999 V2000
    4.5000   -5.0542    0.0000 N   0  0  0  0  0  0  0  0  0  0  0  0
    3.8375   -5.5417    0.0000 N   0  0  0  0  0  0  0  0  0  0  0  0
    5.1708   -5.5417    0.0000 C   0  0  0  0  0  0  0  0  0  0  0  0
    4.9125   -6.3292    0.0000 C   0  0  0  0  0  0  0  0  0  0  0  0
    4.0875   -6.3292    0.0000 C   0  0  0  0  0  0  0  0  0  0  0  0
    5.9917   -5.5417    0.0000 C   0  0  0  0  0  0  0  0  0  0  0  0
    8.3042   -5.3917    0.0000 Cl  0  0  0  0  0  0  0  0  0  0  0  0
    2.4042   -5.7750    0.0000 Cl  0  0  0  0  0  0  0  0  0  0  0  0
    7.2250   -6.2542    0.0000 N   0  0  0  0  0  0  0  0  0  0  0  0
    6.4042   -6.2542    0.0000 C   0  0  0  0  0  0  0  0  0  0  0  0
  2  1  1  0
  3  1  2  0
  4  3  1  0
  5  2  1  0
  6  3  1  0
  9 10  1  0
 10  6  1  0
  4  5  2  0
M  END
>  <ID>  (1044) 


>  <MOLENAME>  (1044) 
BETAZOLE HYDROCHLORIDE

>  <therap>  (1044) 
gastric secretion stimulant

>  <ref>  (1044) 
JAMA 206:2897 (1968); Scand J Gastroenterol 15:277 (1980)

>  <cas#>  (1044) 
138-92-1

>  <source>  (1044) 
synthetic

>  <status>  (1044) 
USP-XX, INN, BAN, JAN

>  <tradename>  (1044) 
HISTALOG

>  <SMILES>  (1044) 
NCCc1n[nH]cc1

>  <standardized_failed>  (1044) 
False

$$$$

     RDKit          2D

 30 30  0  0  0  0  0  0  0  0999 V2000
    2.3292   -1.2667    0.0000 C   0  0  0  0  0  0  0  0  0  0  0  0
    1.5417   -1.5292    0.0000 C   0  0  0  0  0  0  0  0  0  0  0  0
    2.3375   -2.6042    0.0000 N   0  0  0  0  0  0  0  0  0  0  0  0
    2.8167   -1.9292    0.0000 C   0  0  0  0  0  0  0  0  0  0  0  0
    4.7875    0.1583    0.0000 C   0  0  0  0  0  0  0  0  0  0  0  0
    1.5500   -2.3542    0.0000 C   0  0  0  0  0  0  0  0  0  0  0  0
    3.5542   -0.5542    0.0000 N   0  0  0  0  0  0  0  0  0  0  0  0
    6.7542   -1.8375    0.0000 C   0  0  0  0  0  0  0  0  0  0  0  0
    5.6042   -2.5000    0.0000 C   0  0  0  0  0  0  0  0  0  0  0  0
    5.6042   -1.8375    0.0000 C   0  0  0  0  0  0  0  0  0  0  0  0
    6.1792   -1.5042    0.0000 C   0  0  0  0  0  0  0  0  0  0  0  0
    5.2000   -0.5542    0.0000 N   0  0  0  0  0  0  0  0  0  0  0  0
    0.8292   -1.1167    0.0000 C   0  0  0  0  0  0  0  0  0  0  0  0
    3.9667    0.1583    0.0000 N   0  0  0  0  0  0  0  0  0  0  0  0
    2.7375   -0.5542    0.0000 C   0  0  0  0  0  0  0  0  0  0  0  0
    6.7542   -2.5000    0.0000 O   0  0  0  0  0  0  0  0  0  0  0  0
    5.0292   -2.8292    0.0000 O   0  0  0  0  0  0  0  0  0  0  0  0
    5.1917    0.8708    0.0000 N   0  0  0  0  0  0  0  0  0  0  0  0
    0.8292   -2.7667    0.0000 C   0  0  0  0  0  0  0  0  0  0  0  0
    0.1167   -1.5292    0.0000 C   0  0  0  0  0  0  0  0  0  0  0  0
    7.3375   -1.5042    0.0000 O   0  0  0  0  0  0  0  0  0  0  0  0
    6.1792   -2.8292    0.0000 O   0  0  0  0  0  0  0  0  0  0  0  0
    0.1167   -2.3542    0.0000 C   0  0  0  0  0  0  0  0  0  0  0  0
   -0.5958   -1.1167    0.0000 O   0  0  0  0  0  0  0  0  0  0  0  0
    6.0167    0.8708    0.0000 C   0  0  0  0  0  0  0  0  0  0  0  0
   -0.5958   -0.2917    0.0000 C   0  0  0  0  0  0  0  0  0  0  0  0
    6.4292    0.1583    0.0000 C   0  0  0  0  0  0  0  0  0  0  0  0
    7.6625   -0.5542    0.0000 C   0  0  0  0  0  0  0  0  0  0  0  0
    7.2500    0.1583    0.0000 C   0  0  0  0  0  0  0  0  0  0  0  0
    8.4792   -0.5542    0.0000 C   0  0  0  0  0  0  0  0  0  0  0  0
  2  1  1  0
  3  4  1  0
  4  1  2  0
  5 14  1  0
  6  2  2  0
  7 15  2  0
  9 10  1  0
 10 11  2  0
 11  8  1  0
 12  5  2  0
 13  2  1  0
 14  7  1  0
 15  1  1  0
 16  8  2  0
 17  9  2  0
 18  5  1  0
 19  6  1  0
 20 13  2  0
 21  8  1  0
 22  9  1  0
 23 19  2  0
 24 20  1  0
 25 18  1  0
 26 24  1  0
 27 25  1  0
 28 29  1  0
 29 27  1  0
 30 28  1  0
  6  3  1  0
 20 23  1  0
M  END
>  <ID>  (1045) 


>  <MOLENAME>  (1045) 
TEGASEROD MALEATE

>  <therap>  (1045) 
5HT4 receptor agonist, peristaltic stimulant

>  <ref>  (1045) 
J Clin Pharm Ther 27:343 (2002); Exp Opin Pharmacother 3:1211 (2002)

>  <cas#>  (1045) 
189188-57-6

>  <source>  (1045) 
synthetic; HTF-919

>  <status>  (1045) 
USAN, INN, BAN

>  <tradename>  (1045) 
ZELNORM

>  <SMILES>  (1045) 
CCCCCNC(=N)N/N=C/c1c[nH]c2c1cc(OC)cc2

>  <standardized_failed>  (1045) 
False

$$$$

     RDKit          2D

 26 29  0  0  0  0  0  0  0  0999 V2000
    5.0250   -3.0250    0.0000 N   0  0  0  0  0  0  0  0  0  0  0  0
    6.4500   -3.0208    0.0000 C   0  0  0  0  0  0  0  0  0  0  0  0
    7.7167   -3.4250    0.0000 C   0  0  0  0  0  0  0  0  0  0  0  0
    4.3083   -2.6167    0.0000 C   0  0  0  0  0  0  0  0  0  0  0  0
    6.4542   -3.8417    0.0000 C   0  0  0  0  0  0  0  0  0  0  0  0
    7.2375   -4.0917    0.0000 S   0  0  0  0  0  0  0  0  0  0  0  0
    7.2292   -2.7625    0.0000 C   0  0  0  0  0  0  0  0  0  0  0  0
    4.3042   -1.7917    0.0000 C   0  0  0  0  0  0  0  0  0  0  0  0
    3.5958   -3.0333    0.0000 C   0  0  0  0  0  0  0  0  0  0  0  0
    5.7333   -2.6083    0.0000 C   0  0  0  0  0  0  0  0  0  0  0  0
    5.0167   -1.3750    0.0000 C   0  0  0  0  0  0  0  0  0  0  0  0
    8.5417   -3.4208    0.0000 O   0  0  0  0  0  0  0  0  0  0  0  0
    5.8375   -1.3708    0.0000 C   0  0  0  0  0  0  0  0  0  0  0  0
    5.4250   -0.6583    0.0000 C   0  0  0  0  0  0  0  0  0  0  0  0
    5.7375   -4.2583    0.0000 C   0  0  0  0  0  0  0  0  0  0  0  0
    5.0250   -3.8500    0.0000 C   0  0  0  0  0  0  0  0  0  0  0  0
    8.9583   -4.1333    0.0000 C   0  0  0  0  0  0  0  0  0  0  0  0
    3.5958   -3.8625    0.0000 C   0  0  0  0  0  0  0  0  0  0  0  0
    3.5875   -1.3833    0.0000 O   0  0  0  0  0  0  0  0  0  0  0  0
    8.5500   -4.8500    0.0000 O   0  0  0  0  0  0  0  0  0  0  0  0
    4.3125   -4.2750    0.0000 F   0  0  0  0  0  0  0  0  0  0  0  0
    2.8792   -2.6208    0.0000 C   0  0  0  0  0  0  0  0  0  0  0  0
    9.7833   -4.1292    0.0000 C   0  0  0  0  0  0  0  0  0  0  0  0
    2.8792   -4.2750    0.0000 C   0  0  0  0  0  0  0  0  0  0  0  0
    2.1667   -3.0375    0.0000 C   0  0  0  0  0  0  0  0  0  0  0  0
    2.1667   -3.8625    0.0000 C   0  0  0  0  0  0  0  0  0  0  0  0
  2 10  1  0
  3  7  2  0
  4  1  1  1
  5  2  2  0
  6  5  1  0
  7  2  1  0
  4  8  1  0
  9  4  1  0
 10  1  1  0
 11  8  1  0
 12  3  1  0
 13 11  1  0
 14 11  1  0
 15 16  1  0
 16  1  1  0
 17 12  1  0
 18  9  2  0
 19  8  2  0
 20 17  2  0
 21 18  1  0
 22  9  1  0
 23 17  1  0
 24 18  1  0
 25 22  2  0
 26 24  2  0
  5 15  1  0
  3  6  1  0
 13 14  1  0
 26 25  1  0
M  END
>  <ID>  (1046) 


>  <MOLENAME>  (1046) 
PRASUGREL

>  <therap>  (1046) 
platelet aggregation inhibitor

>  <ref>  (1046) 
 N Engl J Med 357:2001 (2007); Am J Cardiovasc Drugs 9: 213 (2009); Drugs 69:707 (2009)

>  <cas#>  (1046) 
150322-43-3

>  <source>  (1046) 
synthetic

>  <status>  (1046) 
USAN, INN

>  <tradename>  (1046) 
EFFIENT

>  <SMILES>  (1046) 
CC(=O)Oc1cc2c(CCN([C@H](C(=O)C3CC3)c3c(F)cccc3)C2)s1

>  <standardized_failed>  (1046) 
False

$$$$

     RDKit          2D

 38 42  0  0  0  0  0  0  0  0999 V2000
    8.6250   -1.6500    0.0000 C   0  0  0  0  0  0  0  0  0  0  0  0
    2.6417   -1.4375    0.0000 C   0  0  0  0  0  0  0  0  0  0  0  0
    7.8250   -2.3083    0.0000 C   0  0  0  0  0  0  0  0  0  0  0  0
    3.9167   -0.1667    0.0000 C   0  0  0  0  0  0  0  0  0  0  0  0
    7.9167   -1.2917    0.0000 C   0  0  0  0  0  0  0  0  0  0  0  0
    3.7667   -0.7792    0.0000 C   0  0  0  0  0  0  0  0  0  0  0  0
    8.7500   -2.0750    0.0000 C   0  0  0  0  0  0  0  0  0  0  0  0
    2.8292   -0.5917    0.0000 C   0  0  0  0  0  0  0  0  0  0  0  0
    3.5042   -2.4917    0.0000 S   0  0  0  0  0  0  0  0  0  0  0  0
    8.9875   -0.2667    0.0000 S   0  0  0  0  0  0  0  0  0  0  0  0
    8.8875   -2.9042    0.0000 C   0  0  0  0  0  0  0  0  0  0  0  0
    2.9250    0.2500    0.0000 C   0  0  0  0  0  0  0  0  0  0  0  0
    9.2042   -1.0625    0.0000 C   0  0  0  0  0  0  0  0  0  0  0  0
    2.6167   -2.1792    0.0000 C   0  0  0  0  0  0  0  0  0  0  0  0
    4.7125    0.0500    0.0000 C   0  0  0  0  0  0  0  0  0  0  0  0
    7.0500   -2.2708    0.0000 C   0  0  0  0  0  0  0  0  0  0  0  0
    1.5167   -0.8750    0.0000 C   0  0  0  0  0  0  0  0  0  0  0  0
    9.5500   -1.4000    0.0000 C   0  0  0  0  0  0  0  0  0  0  0  0
    2.2417   -0.0625    0.0000 C   0  0  0  0  0  0  0  0  0  0  0  0
    9.7917   -2.2167    0.0000 C   0  0  0  0  0  0  0  0  0  0  0  0
    4.3292   -2.4917    0.0000 O   0  0  0  0  0  0  0  0  0  0  0  0
    3.0917   -3.2042    0.0000 O   0  0  0  0  0  0  0  0  0  0  0  0
    9.5667    0.3208    0.0000 O   0  0  0  0  0  0  0  0  0  0  0  0
    8.1875   -0.0583    0.0000 O   0  0  0  0  0  0  0  0  0  0  0  0
    4.3625   -1.1250    0.0000 O   0  0  0  0  0  0  0  0  0  0  0  0
    7.5458   -0.6250    0.0000 O   0  0  0  0  0  0  0  0  0  0  0  0
    3.9167   -3.2042    0.0000 O   0  0  0  0  0  0  0  0  0  0  0  0
    8.7667    0.5333    0.0000 O   0  0  0  0  0  0  0  0  0  0  0  0
    5.2958   -0.5292    0.0000 C   0  0  0  0  0  0  0  0  0  0  0  0
    6.4625   -1.6875    0.0000 C   0  0  0  0  0  0  0  0  0  0  0  0
    2.1792   -0.6250    0.0000 C   0  0  0  0  0  0  0  0  0  0  0  0
    8.2625   -2.2167    0.0000 C   0  0  0  0  0  0  0  0  0  0  0  0
    9.2917   -1.9667    0.0000 C   0  0  0  0  0  0  0  0  0  0  0  0
    3.4542   -0.5917    0.0000 C   0  0  0  0  0  0  0  0  0  0  0  0
    6.6708   -0.8875    0.0000 C   0  0  0  0  0  0  0  0  0  0  0  0
    6.0833   -0.3083    0.0000 C   0  0  0  0  0  0  0  0  0  0  0  0
    5.6667   -1.9042    0.0000 C   0  0  0  0  0  0  0  0  0  0  0  0
    5.0792   -1.3250    0.0000 C   0  0  0  0  0  0  0  0  0  0  0  0
  2  6  1  0
  3  5  1  0
  4 15  2  0
  5  1  1  0
  6  4  1  0
  7  1  1  0
  8 12  1  0
  9 14  1  0
 10 13  1  0
 11  7  1  0
 12  4  1  0
 13  1  1  0
 14  2  1  0
 15 29  1  0
 16  3  2  0
 17  2  1  0
 18  1  1  0
 19 12  1  0
 20 18  1  0
 21  9  2  0
 22  9  2  0
 23 10  2  0
 24 10  2  0
 25  6  2  0
 26  5  2  0
 27  9  1  0
 28 10  1  0
 29 36  2  0
 30 16  1  0
 31  8  1  0
 32  7  1  0
 33  7  1  0
 34  8  1  0
 35 30  2  0
 36 35  1  0
 37 30  1  0
 38 37  2  0
 20 11  1  0
 11  3  1  0
 38 29  1  0
  8  2  1  0
 19 17  1  0
M  END
>  <ID>  (1047) 


>  <MOLENAME>  (1047) 
ECAMSULE TRIETHANOLAMINE

>  <therap>  (1047) 
sunscreen

>  <ref>  (1047) 
J. Photochem. Photobiol., B (1998), 44(1), 69-76; Photochem. Photobiol. (1996), 64(4), 688-693; Photochem. Photobiol. (1992), 55(4), 549-60

>  <cas#>  (1047) 
92761-26-7

>  <source>  (1047) 
synthetic

>  <status>  (1047) 
USAN

>  <tradename>  (1047) 
nan

>  <SMILES>  (1047) 
CC1(C)C2CCC1(CS(=O)(=O)O)C(=O)/C2=C\c1ccc(/C=C2\C(=O)C3(CS(=O)(=O)O)CCC2C3(C)C)cc1

>  <standardized_failed>  (1047) 
False

$$$$

     RDKit          2D

 30 29  0  0  0  0  0  0  0  0999 V2000
    1.3125   -5.8292    0.0000 C   0  0  0  0  0  0  0  0  0  0  0  0
    2.0292   -5.4167    0.0000 C   0  0  0  0  0  0  0  0  0  0  0  0
    9.1125   -3.3375    0.0000 C   0  0  0  0  0  0  0  0  0  0  0  0
   10.3042   -2.6542    0.0000 C   0  0  0  0  0  0  0  0  0  0  0  0
    9.7042   -3.6792    0.0000 C   0  0  0  0  0  0  0  0  0  0  0  0
   10.3042   -3.3417    0.0000 C   0  0  0  0  0  0  0  0  0  0  0  0
    4.1667   -4.1750    0.0000 C   0  0  0  0  0  0  0  0  0  0  0  0
    4.1667   -3.3500    0.0000 N   0  0  0  0  0  0  0  0  0  0  0  0
    3.4583   -4.5875    0.0000 C   0  0  0  0  0  0  0  0  0  0  0  0
    9.7125   -2.3042    0.0000 O   0  0  0  0  0  0  0  0  0  0  0  0
    8.5208   -3.6792    0.0000 O   0  0  0  0  0  0  0  0  0  0  0  0
    2.0292   -4.5875    0.0000 C   0  0  0  0  0  0  0  0  0  0  0  0
    2.7417   -5.8292    0.0000 C   0  0  0  0  0  0  0  0  0  0  0  0
    0.6000   -5.4167    0.0000 F   0  0  0  0  0  0  0  0  0  0  0  0
    1.3125   -6.6542    0.0000 F   0  0  0  0  0  0  0  0  0  0  0  0
    0.5917   -6.2375    0.0000 F   0  0  0  0  0  0  0  0  0  0  0  0
    3.4583   -5.4167    0.0000 C   0  0  0  0  0  0  0  0  0  0  0  0
    2.7417   -4.1750    0.0000 C   0  0  0  0  0  0  0  0  0  0  0  0
    4.8792   -2.9375    0.0000 O   0  0  0  0  0  0  0  0  0  0  0  0
    9.1125   -2.6542    0.0000 O   0  0  0  0  0  0  0  0  0  0  0  0
   10.8958   -2.3125    0.0000 O   0  0  0  0  0  0  0  0  0  0  0  0
    7.0167   -3.3417    0.0000 N   0  0  0  0  0  0  0  0  0  0  0  0
    5.5917   -3.3417    0.0000 C   0  0  0  0  0  0  0  0  0  0  0  0
    7.7292   -4.5750    0.0000 O   0  0  0  0  0  0  0  0  0  0  0  0
    4.8792   -4.5792    0.0000 C   0  0  0  0  0  0  0  0  0  0  0  0
    6.3042   -2.9292    0.0000 C   0  0  0  0  0  0  0  0  0  0  0  0
    7.0167   -4.1667    0.0000 C   0  0  0  0  0  0  0  0  0  0  0  0
    8.4417   -4.1625    0.0000 C   0  0  0  0  0  0  0  0  0  0  0  0
    5.5917   -4.1667    0.0000 C   0  0  0  0  0  0  0  0  0  0  0  0
    6.3042   -4.5792    0.0000 C   0  0  0  0  0  0  0  0  0  0  0  0
  2  1  1  0
  4  6  1  0
  5  3  1  0
  6  5  2  0
  7  9  1  0
  8  7  2  0
  9 18  2  0
 10  4  2  0
 11  3  2  0
 12  2  2  0
 13  2  1  0
 14  1  1  0
 15  1  1  0
 16  1  1  0
 17 13  2  0
 18 12  1  0
 19  8  1  0
 20  3  1  0
 21  4  1  0
 22 26  1  0
 23 19  1  0
 24 27  1  0
 25  7  1  0
 26 23  1  0
 27 30  1  0
 28 24  1  0
 29 25  1  0
 30 29  1  0
  9 17  1  0
M  END
>  <ID>  (1048) 


>  <MOLENAME>  (1048) 
FLUVOXAMINE MALEATE

>  <therap>  (1048) 
antiobsessional agent

>  <ref>  (1048) 
J. Psychopharmacol. (1997), 11(3), 211-218; Neuropharmacology (1980), 19(12), 1215-16; Prog. Neuro-Psychopharmacol. (1977), 1(3-4), 309-22

>  <cas#>  (1048) 
61718-82-9

>  <source>  (1048) 
synthetic; DU-23000

>  <status>  (1048) 
USAN, INN, BAN

>  <tradename>  (1048) 
LUVOX

>  <SMILES>  (1048) 
COCCCC/C(=N\OCCN)c1ccc(C(F)(F)F)cc1

>  <standardized_failed>  (1048) 
False

$$$$

     RDKit          2D

 64 71  0  0  0  0  0  0  0  0999 V2000
    8.2875   -2.0250    0.0000 C   0  0  0  0  0  0  0  0  0  0  0  0
    7.4667   -2.1625    0.0000 C   0  0  0  0  0  0  0  0  0  0  0  0
    7.1750   -2.9292    0.0000 C   0  0  0  0  0  0  0  0  0  0  0  0
    8.7292   -1.3292    0.0000 C   0  0  0  0  0  0  0  0  0  0  0  0
    9.7000    1.6625    0.0000 C   0  0  0  0  0  0  0  0  0  0  0  0
    8.8125   -2.6625    0.0000 C   0  0  0  0  0  0  0  0  0  0  0  0
    8.5125   -3.4292    0.0000 C   0  0  0  0  0  0  0  0  0  0  0  0
    6.3625   -2.8917    0.0000 O   0  0  0  0  0  0  0  0  0  0  0  0
    6.8250   -1.6500    0.0000 C   0  0  0  0  0  0  0  0  0  0  0  0
    2.5250    0.8458    0.0000 C   0  0  0  0  0  0  0  0  0  0  0  0
    7.7000   -3.5667    0.0000 C   0  0  0  0  0  0  0  0  0  0  0  0
   10.4125    1.2500    0.0000 O   0  0  0  0  0  0  0  0  0  0  0  0
    1.0792    0.8458    0.0000 C   0  0  0  0  0  0  0  0  0  0  0  0
    3.9625    1.6708    0.0000 C   0  0  0  0  0  0  0  0  0  0  0  0
    8.9875   -0.4042    0.0000 O   0  0  0  0  0  0  0  0  0  0  0  0
    3.9542    0.8458    0.0000 O   0  0  0  0  0  0  0  0  0  0  0  0
    0.3667    0.4333    0.0000 O   0  0  0  0  0  0  0  0  0  0  0  0
    3.2500    2.0833    0.0000 C   0  0  0  0  0  0  0  0  0  0  0  0
    1.0792    1.4708    0.0000 C   0  0  0  0  0  0  0  0  0  0  0  0
    2.5292    1.6708    0.0000 C   0  0  0  0  0  0  0  0  0  0  0  0
   -0.3500    1.4708    0.0000 C   0  0  0  0  0  0  0  0  0  0  0  0
    5.4000    1.6625    0.0000 C   0  0  0  0  0  0  0  0  0  0  0  0
    9.7000    0.8333    0.0000 C   0  0  0  0  0  0  0  0  0  0  0  0
    8.9875    2.0833    0.0000 O   0  0  0  0  0  0  0  0  0  0  0  0
    3.2417    0.4333    0.0000 C   0  0  0  0  0  0  0  0  0  0  0  0
   11.1250    1.6625    0.0000 C   0  0  0  0  0  0  0  0  0  0  0  0
    0.3667    1.8833    0.0000 C   0  0  0  0  0  0  0  0  0  0  0  0
    8.9875    0.4208    0.0000 C   0  0  0  0  0  0  0  0  0  0  0  0
   -0.3500    0.8458    0.0000 C   0  0  0  0  0  0  0  0  0  0  0  0
    6.1167    2.0833    0.0000 C   0  0  0  0  0  0  0  0  0  0  0  0
    1.8000    0.4333    0.0000 O   0  0  0  0  0  0  0  0  0  0  0  0
    9.7000    2.4958    0.0000 C   0  0  0  0  0  0  0  0  0  0  0  0
    4.6792    2.0833    0.0000 O   0  0  0  0  0  0  0  0  0  0  0  0
   10.4125    2.9083    0.0000 C   0  0  0  0  0  0  0  0  0  0  0  0
    6.8375    1.6625    0.0000 C   0  0  0  0  0  0  0  0  0  0  0  0
    6.1417   -2.1042    0.0000 C   0  0  0  0  0  0  0  0  0  0  0  0
    6.8250   -0.8167    0.0000 C   0  0  0  0  0  0  0  0  0  0  0  0
    9.2542   -1.9750    0.0000 O   0  0  0  0  0  0  0  0  0  0  0  0
    6.1125   -0.4125    0.0000 C   0  0  0  0  0  0  0  0  0  0  0  0
   11.1250    2.4958    0.0000 C   0  0  0  0  0  0  0  0  0  0  0  0
    8.2667    0.8333    0.0000 C   0  0  0  0  0  0  0  0  0  0  0  0
    8.2667    1.6625    0.0000 C   0  0  0  0  0  0  0  0  0  0  0  0
    5.4000    0.8333    0.0000 C   0  0  0  0  0  0  0  0  0  0  0  0
    6.1125    0.4208    0.0000 C   0  0  0  0  0  0  0  0  0  0  0  0
    7.4750   -1.3375    0.0000 O   0  0  0  0  0  0  0  0  0  0  0  0
   11.8500    1.2458    0.0000 C   0  0  0  0  0  0  0  0  0  0  0  0
    7.5500    2.0833    0.0000 C   0  0  0  0  0  0  0  0  0  0  0  0
    7.4125   -4.3500    0.0000 O   0  0  0  0  0  0  0  0  0  0  0  0
   -1.1458    1.7000    0.0000 O   0  0  0  0  0  0  0  0  0  0  0  0
    1.8125    2.0833    0.0000 O   0  0  0  0  0  0  0  0  0  0  0  0
    0.3667    2.7083    0.0000 O   0  0  0  0  0  0  0  0  0  0  0  0
    9.0375   -4.0792    0.0000 C   0  0  0  0  0  0  0  0  0  0  0  0
    6.1167    2.9000    0.0000 C   0  0  0  0  0  0  0  0  0  0  0  0
    3.2417   -0.3917    0.0000 C   0  0  0  0  0  0  0  0  0  0  0  0
   -1.1458    0.6083    0.0000 C   0  0  0  0  0  0  0  0  0  0  0  0
   11.8500    2.9125    0.0000 C   0  0  0  0  0  0  0  0  0  0  0  0
    4.6792    0.4125    0.0000 C   0  0  0  0  0  0  0  0  0  0  0  0
   12.5625    1.6583    0.0000 C   0  0  0  0  0  0  0  0  0  0  0  0
   11.8500    0.4333    0.0000 C   0  0  0  0  0  0  0  0  0  0  0  0
    1.8250    3.0083    0.0000 C   0  0  0  0  0  0  0  0  0  0  0  0
   -0.4583    3.1708    0.0000 C   0  0  0  0  0  0  0  0  0  0  0  0
   12.5625    0.0208    0.0000 C   0  0  0  0  0  0  0  0  0  0  0  0
   13.2750    1.2583    0.0000 C   0  0  0  0  0  0  0  0  0  0  0  0
   13.2750    0.4333    0.0000 C   0  0  0  0  0  0  0  0  0  0  0  0
  2  1  1  0
  3  2  1  0
  1  4  1  0
  5 23  1  1
  1  6  1  6
  7  6  2  0
  3  8  1  1
  9  2  1  0
 10 20  1  0
 11  7  1  0
  5 12  1  0
 13 31  1  6
 33 14  1  0
 15  4  1  0
 16 14  1  0
 17 13  1  0
 18 14  1  0
 19 13  1  0
 20 18  1  0
 21 27  1  0
 22 43  1  0
 28 23  1  1
 24 42  1  0
 25 16  1  0
 26 12  1  0
 27 19  1  0
 28 15  1  0
 29 17  1  0
 30 35  2  0
 31 10  1  0
  5 32  1  0
 22 33  1  6
 34 32  2  0
 35 47  1  0
 36  9  1  0
 37  9  2  0
 38  4  2  0
 39 37  1  0
 40 34  1  0
 41 28  1  0
 42 41  1  0
 43 44  1  0
 44 39  2  0
  2 45  1  6
 26 46  1  1
 42 47  1  1
 11 48  1  1
 21 49  1  6
 20 50  1  1
 27 51  1  1
 52  7  1  0
 53 30  1  0
 25 54  1  1
 29 55  1  1
 40 56  1  6
 43 57  1  6
 58 46  1  0
 59 46  1  0
 60 50  1  0
 61 51  1  0
 62 59  1  0
 63 58  1  0
 64 62  1  0
  3 11  1  0
 36  8  1  0
  5 24  1  0
 22 30  1  0
 26 40  1  0
 64 63  1  0
 25 10  1  0
 29 21  1  0
M  END
>  <ID>  (1049) 


>  <MOLENAME>  (1049) 
DORAMECTIN

>  <therap>  (1049) 
endoparasitic

>  <ref>  (1049) 
J Antibiot 44:357 (1991); Res Vet Sci 75:217 (2003)

>  <cas#>  (1049) 
117704-25-3

>  <source>  (1049) 
Streptomyces avermitilis; UK-67994

>  <status>  (1049) 
USAN, INN, BAN

>  <tradename>  (1049) 
DECTOMAX

>  <SMILES>  (1049) 
CO[C@H]1CC(O[C@@H]2/C(C)=C/C[C@@H]3C[C@@H](C[C@]4(C=C[C@H](C)[C@@H](C5CCCCC5)O4)O3)OC(=O)[C@@H]3C=C(C)[C@@H](O)[C@H]4OC/C(=C\C=C\[C@@H]2C)[C@@]34O)O[C@@H](C)C1O[C@H]1C[C@H](OC)[C@@H](O)[C@H](C)O1

>  <standardized_failed>  (1049) 
False

$$$$

     RDKit          2D

 27 31  0  0  0  0  0  0  0  0999 V2000
    0.3292    0.5500    0.0000 C   0  0  0  0  0  0  0  0  0  0  0  0
    0.3292   -0.2792    0.0000 C   0  0  0  0  0  0  0  0  0  0  0  0
   -0.3875   -0.6917    0.0000 C   0  0  0  0  0  0  0  0  0  0  0  0
   -1.1083   -0.2792    0.0000 C   0  0  0  0  0  0  0  0  0  0  0  0
   -1.8208   -0.6917    0.0000 C   0  0  0  0  0  0  0  0  0  0  0  0
    1.1125    0.8083    0.0000 C   0  0  0  0  0  0  0  0  0  0  0  0
   -1.8208   -1.5167    0.0000 C   0  0  0  0  0  0  0  0  0  0  0  0
    1.8917    0.5458    0.0000 C   0  0  0  0  0  0  0  0  0  0  0  0
   -0.3958    0.9625    0.0000 C   0  0  0  0  0  0  0  0  0  0  0  0
   -1.1083    0.5500    0.0000 C   0  0  0  0  0  0  0  0  0  0  0  0
    1.1125   -0.5292    0.0000 C   0  0  0  0  0  0  0  0  0  0  0  0
   -0.3875   -1.5167    0.0000 C   0  0  0  0  0  0  0  0  0  0  0  0
    2.6792    0.2875    0.0000 C   0  0  0  0  0  0  0  0  0  0  0  0
   -2.5333   -0.2792    0.0000 C   0  0  0  0  0  0  0  0  0  0  0  0
   -2.5333   -1.9292    0.0000 C   0  0  0  0  0  0  0  0  0  0  0  0
   -1.1083   -1.9292    0.0000 C   0  0  0  0  0  0  0  0  0  0  0  0
    1.5917    0.1375    0.0000 C   0  0  0  0  0  0  0  0  0  0  0  0
   -3.2458   -1.5167    0.0000 C   0  0  0  0  0  0  0  0  0  0  0  0
   -3.9708   -1.9292    0.0000 O   0  0  0  0  0  0  0  0  0  0  0  0
   -3.2458   -0.6917    0.0000 C   0  0  0  0  0  0  0  0  0  0  0  0
    1.4500    1.5583    0.0000 O   0  0  0  0  0  0  0  0  0  0  0  0
    0.3250    1.3750    0.0000 C   0  0  0  0  0  0  0  0  0  0  0  0
   -4.6833   -1.5083    0.0000 C   0  0  0  0  0  0  0  0  0  0  0  0
   -4.7667   -0.6833    0.0000 C   0  0  0  0  0  0  0  0  0  0  0  0
   -5.4417   -1.8375    0.0000 C   0  0  0  0  0  0  0  0  0  0  0  0
   -5.9875   -1.2208    0.0000 C   0  0  0  0  0  0  0  0  0  0  0  0
   -5.5708   -0.5083    0.0000 C   0  0  0  0  0  0  0  0  0  0  0  0
  2  1  1  0
  3  2  1  0
  4  3  1  0
  5  4  1  0
  6  1  1  0
  7  5  2  0
  6  8  1  0
  9  1  1  0
 10  9  1  0
 11  2  1  0
 12  3  1  0
 13  8  3  0
 14  5  1  0
 15  7  1  0
 16 12  1  0
 17  6  1  0
 18 15  2  0
 19 18  1  0
 20 14  2  0
  6 21  1  1
  1 22  1  1
 23 19  1  0
 24 23  1  0
 25 23  1  0
 26 25  1  0
 27 24  1  0
 10  4  1  0
 11 17  1  0
  7 16  1  0
 20 18  1  0
 26 27  1  0
M  END
>  <ID>  (1050) 


>  <MOLENAME>  (1050) 
QUINESTROL

>  <therap>  (1050) 
estrogen

>  <ref>  (1050) 
Chem Ind 1961:1037

>  <cas#>  (1050) 
152-43-2

>  <source>  (1050) 
semisynthetic; W-3566

>  <status>  (1050) 
USAN, USP-XXII, INN, BAN

>  <tradename>  (1050) 
ESTROVIS

>  <SMILES>  (1050) 
C#C[C@]1(O)CCC2C3CCc4c(ccc(OC5CCCC5)c4)C3CC[C@@]21C

>  <standardized_failed>  (1050) 
False

$$$$

     RDKit          2D

 21 21  0  0  0  0  0  0  0  0999 V2000
    5.3292   -0.6000    0.0000 N   0  0  0  0  0  0  0  0  0  0  0  0
    6.1125   -0.3375    0.0000 C   0  0  0  0  0  0  0  0  0  0  0  0
    4.5042   -0.6000    0.0000 C   0  0  0  0  0  0  0  0  0  0  0  0
    5.3375   -1.4208    0.0000 C   0  0  0  0  0  0  0  0  0  0  0  0
    4.5042   -1.4250    0.0000 C   0  0  0  0  0  0  0  0  0  0  0  0
    6.6042   -1.0042    0.0000 C   0  0  0  0  0  0  0  0  0  0  0  0
    6.1208   -1.6750    0.0000 C   0  0  0  0  0  0  0  0  0  0  0  0
    6.3667    0.4458    0.0000 C   0  0  0  0  0  0  0  0  0  0  0  0
    3.9208   -0.0125    0.0000 O   0  0  0  0  0  0  0  0  0  0  0  0
    9.9125   -2.4125    0.0000 C   0  0  0  0  0  0  0  0  0  0  0  0
   10.3292   -3.1250    0.0000 N   0  0  0  0  0  0  0  0  0  0  0  0
    3.9208   -2.0042    0.0000 C   0  0  0  0  0  0  0  0  0  0  0  0
    7.4292   -1.0000    0.0000 S   0  0  0  0  0  0  0  0  0  0  0  0
    5.8083    1.0583    0.0000 O   0  0  0  0  0  0  0  0  0  0  0  0
    9.0875   -2.4167    0.0000 N   0  0  0  0  0  0  0  0  0  0  0  0
    7.1708    0.6250    0.0000 O   0  0  0  0  0  0  0  0  0  0  0  0
    3.1250   -1.7917    0.0000 O   0  0  0  0  0  0  0  0  0  0  0  0
    9.0750   -0.2417    0.0000 O   0  0  0  0  0  0  0  0  0  0  0  0
    7.8458   -1.7125    0.0000 C   0  0  0  0  0  0  0  0  0  0  0  0
    8.6708   -1.7083    0.0000 C   0  0  0  0  0  0  0  0  0  0  0  0
    4.1375   -2.8042    0.0000 C   0  0  0  0  0  0  0  0  0  0  0  0
  2  1  1  0
  3  1  1  0
  4  1  1  0
  5  4  1  0
  6  2  2  0
  4  7  1  6
  8  2  1  0
  9  3  2  0
 10 15  1  0
 11 10  2  0
  5 12  1  0
 13  6  1  0
 14  8  2  0
 15 20  1  0
 16  8  1  0
 12 17  1  0
 19 13  1  0
 20 19  1  0
 12 21  1  1
  6  7  1  0
  5  3  1  1
M  END
>  <ID>  (1051) 


>  <MOLENAME>  (1051) 
IMIPENEM

>  <therap>  (1051) 
antibacterial

>  <ref>  (1051) 
Drugs (1987), 33(3), 183-241; Antimicrob. Agents Chemother. (1980), 17(6), 993-1000; J. Med. Chem. (1979), 22(12), 1435-6

>  <cas#>  (1051) 
74431-23-5

>  <source>  (1051) 
synthetic

>  <status>  (1051) 
USP, INN, BAN, JAN

>  <tradename>  (1051) 
IMIPEM

>  <SMILES>  (1051) 
C[C@@H](O)[C@H]1C(=O)N2C(C(=O)O)=C(SCCNC=N)C[C@H]12

>  <standardized_failed>  (1051) 
False

$$$$

     RDKit          2D

 35 36  0  0  0  0  0  0  0  0999 V2000
    0.7792   -3.7125    0.0000 O   0  0  0  0  0  0  0  0  0  0  0  0
    0.0750   -3.3000    0.0000 C   0  0  0  0  0  0  0  0  0  0  0  0
    0.7875   -2.8917    0.0000 C   0  0  0  0  0  0  0  0  0  0  0  0
    2.9250   -1.6667    0.0000 C   0  0  0  0  0  0  0  0  0  0  0  0
    1.5000   -1.6625    0.0000 C   0  0  0  0  0  0  0  0  0  0  0  0
   -0.6375   -2.8875    0.0000 C   0  0  0  0  0  0  0  0  0  0  0  0
    2.2125   -2.0750    0.0000 C   0  0  0  0  0  0  0  0  0  0  0  0
    2.9250   -0.8417    0.0000 C   0  0  0  0  0  0  0  0  0  0  0  0
    0.7875   -2.0667    0.0000 C   0  0  0  0  0  0  0  0  0  0  0  0
    2.2125   -0.4292    0.0000 O   0  0  0  0  0  0  0  0  0  0  0  0
    5.0625   -0.4292    0.0000 C   0  0  0  0  0  0  0  0  0  0  0  0
    4.3500   -0.8417    0.0000 C   0  0  0  0  0  0  0  0  0  0  0  0
    5.7750   -0.8417    0.0000 C   0  0  0  0  0  0  0  0  0  0  0  0
    1.5000   -0.8417    0.0000 C   0  0  0  0  0  0  0  0  0  0  0  0
    3.6375   -0.4292    0.0000 C   0  0  0  0  0  0  0  0  0  0  0  0
   12.9000   -0.8417    0.0000 C   0  0  0  0  0  0  0  0  0  0  0  0
    5.7750   -1.6667    0.0000 O   0  0  0  0  0  0  0  0  0  0  0  0
   13.6125   -0.4292    0.0000 O   0  0  0  0  0  0  0  0  0  0  0  0
   -0.6458   -2.0625    0.0000 C   0  0  0  0  0  0  0  0  0  0  0  0
    3.6417   -2.0792    0.0000 O   0  0  0  0  0  0  0  0  0  0  0  0
    2.2125   -2.9000    0.0000 O   0  0  0  0  0  0  0  0  0  0  0  0
   12.9000   -1.6667    0.0000 O   0  0  0  0  0  0  0  0  0  0  0  0
    6.4875   -0.4292    0.0000 O   0  0  0  0  0  0  0  0  0  0  0  0
   -1.3625   -1.6500    0.0000 O   0  0  0  0  0  0  0  0  0  0  0  0
   -1.3583   -3.3000    0.0000 C   0  0  0  0  0  0  0  0  0  0  0  0
    4.3500   -1.6667    0.0000 C   0  0  0  0  0  0  0  0  0  0  0  0
   12.1875   -0.4292    0.0000 C   0  0  0  0  0  0  0  0  0  0  0  0
    0.0625   -1.6417    0.0000 C   0  0  0  0  0  0  0  0  0  0  0  0
    7.2000   -0.8417    0.0000 C   0  0  0  0  0  0  0  0  0  0  0  0
   11.4750   -0.8417    0.0000 C   0  0  0  0  0  0  0  0  0  0  0  0
    7.9125   -0.4292    0.0000 C   0  0  0  0  0  0  0  0  0  0  0  0
    8.6250   -0.8417    0.0000 C   0  0  0  0  0  0  0  0  0  0  0  0
    9.3375   -0.4292    0.0000 C   0  0  0  0  0  0  0  0  0  0  0  0
   10.0500   -0.8417    0.0000 C   0  0  0  0  0  0  0  0  0  0  0  0
   10.7625   -0.4292    0.0000 C   0  0  0  0  0  0  0  0  0  0  0  0
  2  1  1  1
  3  1  1  0
  4  7  1  0
  5  9  1  1
  2  6  1  0
  7  5  1  0
  8 10  1  0
  3  9  1  6
 10 14  1  0
 11 12  2  0
 12 15  1  0
 13 11  1  0
 14  5  1  0
  8 15  1  1
 16 27  1  0
 17 13  2  0
 18 16  2  0
 19  6  1  0
  4 20  1  6
  7 21  1  6
 22 16  1  0
 23 13  1  0
 24 19  1  0
  6 25  1  1
 26 12  1  0
 27 30  1  0
 19 28  1  1
 29 23  1  0
 30 35  1  0
 31 29  1  0
 32 31  1  0
 33 32  1  0
 34 33  1  0
 35 34  1  0
  3  2  1  0
  8  4  1  0
M  END
>  <ID>  (1052) 


>  <MOLENAME>  (1052) 
MUPIROCIN

>  <therap>  (1052) 
antibacterial, antimycoplasmal, isoleucyl-tRNA synthetase inhibitor

>  <ref>  (1052) 
J Antibiotics 31:330 (1978); Biochem J 176:305 (1978); 191:209 (1980)

>  <cas#>  (1052) 
12650-69-0

>  <source>  (1052) 
Pseudomonas fluorescens; BRL-4910A

>  <status>  (1052) 
USP, INN, BAN

>  <tradename>  (1052) 
BACTROBAN

>  <SMILES>  (1052) 
C/C(=C\C(=O)OCCCCCCCCC(=O)O)C[C@@H]1OC[C@H](C[C@@H]2O[C@H]2[C@@H](C)[C@H](C)O)[C@@H](O)[C@H]1O

>  <standardized_failed>  (1052) 
False

$$$$

     RDKit          2D

 26 26  0  0  0  0  0  0  0  0999 V2000
    1.8458   -5.1042    0.0000 N   0  0  0  0  0  0  0  0  0  0  0  0
    8.9750   -5.0917    0.0000 C   0  0  0  0  0  0  0  0  0  0  0  0
   11.1125   -4.6750    0.0000 C   0  0  0  0  0  0  0  0  0  0  0  0
    8.9750   -5.9167    0.0000 O   0  0  0  0  0  0  0  0  0  0  0  0
   11.1083   -3.8500    0.0000 O   0  0  0  0  0  0  0  0  0  0  0  0
    2.5625   -4.6917    0.0000 C   0  0  0  0  0  0  0  0  0  0  0  0
   10.3958   -5.0917    0.0000 O   0  0  0  0  0  0  0  0  0  0  0  0
    3.2750   -5.1083    0.0000 C   0  0  0  0  0  0  0  0  0  0  0  0
    8.2625   -4.6875    0.0000 N   0  0  0  0  0  0  0  0  0  0  0  0
    9.6875   -4.6792    0.0000 C   0  0  0  0  0  0  0  0  0  0  0  0
    3.9875   -4.6958    0.0000 C   0  0  0  0  0  0  0  0  0  0  0  0
    4.7000   -5.1083    0.0000 C   0  0  0  0  0  0  0  0  0  0  0  0
    1.8417   -3.5500    0.0000 Cl  0  0  0  0  0  0  0  0  0  0  0  0
    6.8375   -4.6917    0.0000 C   0  0  0  0  0  0  0  0  0  0  0  0
    5.4125   -4.6917    0.0000 O   0  0  0  0  0  0  0  0  0  0  0  0
    1.8458   -5.9292    0.0000 C   0  0  0  0  0  0  0  0  0  0  0  0
    1.1333   -4.6875    0.0000 C   0  0  0  0  0  0  0  0  0  0  0  0
    3.9833   -6.3458    0.0000 C   0  0  0  0  0  0  0  0  0  0  0  0
    7.5500   -5.1000    0.0000 C   0  0  0  0  0  0  0  0  0  0  0  0
   11.8250   -5.0833    0.0000 C   0  0  0  0  0  0  0  0  0  0  0  0
    3.2708   -5.9333    0.0000 C   0  0  0  0  0  0  0  0  0  0  0  0
    6.1250   -5.1042    0.0000 C   0  0  0  0  0  0  0  0  0  0  0  0
    4.7000   -5.9375    0.0000 C   0  0  0  0  0  0  0  0  0  0  0  0
    1.1333   -6.3375    0.0000 C   0  0  0  0  0  0  0  0  0  0  0  0
    0.4250   -5.1042    0.0000 C   0  0  0  0  0  0  0  0  0  0  0  0
    0.4250   -5.9292    0.0000 C   0  0  0  0  0  0  0  0  0  0  0  0
  2  9  1  0
  3  7  1  0
  4  2  2  0
  5  3  2  0
  6  1  1  0
  7 10  1  0
  8  6  1  0
  9 19  1  0
 10  2  1  0
 11  8  2  0
 12 11  1  0
 14 22  1  0
 15 12  1  0
 16  1  1  0
 17  1  1  0
 18 21  2  0
 19 14  1  0
 20  3  1  0
 21  8  1  0
 22 15  1  0
 23 18  1  0
 24 16  1  0
 25 17  1  0
 26 25  1  0
 24 26  1  0
 12 23  2  0
M  END
>  <ID>  (1053) 


>  <MOLENAME>  (1053) 
ROXATIDINE ACETATE HYDROCHLORIDE

>  <therap>  (1053) 
antiulcer

>  <ref>  (1053) 
Arzneim Forsch 35:703, 844 (1985); 

>  <cas#>  (1053) 
93793-83-0

>  <source>  (1053) 
synthetic; HOE-760

>  <status>  (1053) 
USAN, INN, BAN, JAN

>  <tradename>  (1053) 
ROXIT

>  <SMILES>  (1053) 
CC(=O)OCC(=O)NCCCOc1cccc(CN2CCCCC2)c1

>  <standardized_failed>  (1053) 
False

$$$$

     RDKit          2D

 26 27  0  0  0  0  0  0  0  0999 V2000
    3.4167   -4.0250    0.0000 C   0  0  0  0  0  0  0  0  0  0  0  0
    3.4167   -4.8500    0.0000 C   0  0  0  0  0  0  0  0  0  0  0  0
    2.7042   -3.6042    0.0000 C   0  0  0  0  0  0  0  0  0  0  0  0
    1.9917   -4.0250    0.0000 C   0  0  0  0  0  0  0  0  0  0  0  0
    2.7042   -5.2542    0.0000 C   0  0  0  0  0  0  0  0  0  0  0  0
    1.9917   -4.8500    0.0000 C   0  0  0  0  0  0  0  0  0  0  0  0
    4.1292   -3.6125    0.0000 C   0  0  0  0  0  0  0  0  0  0  0  0
    2.7042   -2.7792    0.0000 O   0  0  0  0  0  0  0  0  0  0  0  0
    2.7042   -6.0792    0.0000 O   0  0  0  0  0  0  0  0  0  0  0  0
    8.4042   -3.6000    0.0000 C   0  0  0  0  0  0  0  0  0  0  0  0
    4.1250   -2.7875    0.0000 C   0  0  0  0  0  0  0  0  0  0  0  0
    8.4000   -2.7750    0.0000 O   0  0  0  0  0  0  0  0  0  0  0  0
    4.1333   -5.2625    0.0000 C   0  0  0  0  0  0  0  0  0  0  0  0
    1.2792   -3.6125    0.0000 C   0  0  0  0  0  0  0  0  0  0  0  0
    1.2792   -5.2625    0.0000 C   0  0  0  0  0  0  0  0  0  0  0  0
    9.1167   -4.0042    0.0000 O   0  0  0  0  0  0  0  0  0  0  0  0
    4.8417   -4.0167    0.0000 C   0  0  0  0  0  0  0  0  0  0  0  0
    7.6917   -4.0083    0.0000 C   0  0  0  0  0  0  0  0  0  0  0  0
    3.4125   -2.3792    0.0000 C   0  0  0  0  0  0  0  0  0  0  0  0
    4.8417   -2.3750    0.0000 C   0  0  0  0  0  0  0  0  0  0  0  0
    5.5542   -3.6042    0.0000 C   0  0  0  0  0  0  0  0  0  0  0  0
    6.9792   -3.6042    0.0000 C   0  0  0  0  0  0  0  0  0  0  0  0
    6.2667   -4.0167    0.0000 C   0  0  0  0  0  0  0  0  0  0  0  0
    4.8375   -1.5500    0.0000 C   0  0  0  0  0  0  0  0  0  0  0  0
    3.4083   -1.5583    0.0000 C   0  0  0  0  0  0  0  0  0  0  0  0
    4.1208   -1.1375    0.0000 C   0  0  0  0  0  0  0  0  0  0  0  0
  2  1  2  0
  3  1  1  0
  4  3  1  0
  5  2  1  0
  6  4  2  0
  7  1  1  0
  8  3  2  0
  9  5  2  0
 10 18  1  0
 11  7  1  0
 12 10  2  0
 13  2  1  0
 14  4  1  0
 15  6  1  0
 16 10  1  0
 17  7  1  0
 18 22  1  0
 19 11  2  0
 20 11  1  0
 21 17  1  0
 22 23  1  0
 23 21  1  0
 24 20  2  0
 25 19  1  0
 26 25  2  0
  5  6  1  0
 26 24  1  0
M  END
>  <ID>  (1054) 


>  <MOLENAME>  (1054) 
SERATRODAST

>  <therap>  (1054) 
Thx-antagonist, antiasthmatic, antiinflammatory

>  <ref>  (1054) 
Jpn J Pharmacol 52:35 (1990); J Allergy Clin Immunol 87:23 (1991); Clin Pharmacol Ther 55:441 (1994)

>  <cas#>  (1054) 
112665-43-7

>  <source>  (1054) 
synthetic; AA-2414, A-73001

>  <status>  (1054) 
USAN, INN

>  <tradename>  (1054) 
BRONICA

>  <SMILES>  (1054) 
CC1=C(C)C(=O)C(C(CCCCCC(=O)O)c2ccccc2)=C(C)C1=O

>  <standardized_failed>  (1054) 
False

$$$$

     RDKit          2D

 29 30  0  0  0  0  0  0  0  0999 V2000
    4.4167   -4.8792    0.0000 C   0  0  0  0  0  0  0  0  0  0  0  0
    5.0917   -3.9292    0.0000 N   0  0  0  0  0  0  0  0  0  0  0  0
    4.2792   -4.0667    0.0000 C   0  0  0  0  0  0  0  0  0  0  0  0
    5.2292   -4.7417    0.0000 C   0  0  0  0  0  0  0  0  0  0  0  0
    5.7167   -3.4042    0.0000 C   0  0  0  0  0  0  0  0  0  0  0  0
    6.0042   -5.0250    0.0000 S   0  0  0  0  0  0  0  0  0  0  0  0
    3.9417   -5.5625    0.0000 N   0  0  0  0  0  0  0  0  0  0  0  0
    6.4917   -3.6875    0.0000 C   0  0  0  0  0  0  0  0  0  0  0  0
    5.5792   -2.5917    0.0000 C   0  0  0  0  0  0  0  0  0  0  0  0
    4.2917   -6.3125    0.0000 C   0  0  0  0  0  0  0  0  0  0  0  0
    8.5292   -2.8917    0.0000 C   0  0  0  0  0  0  0  0  0  0  0  0
    3.8167   -6.9875    0.0000 C   0  0  0  0  0  0  0  0  0  0  0  0
    4.1667   -7.7375    0.0000 C   0  0  0  0  0  0  0  0  0  0  0  0
    6.6375   -4.4917    0.0000 C   0  0  0  0  0  0  0  0  0  0  0  0
    3.5917   -3.5917    0.0000 O   0  0  0  0  0  0  0  0  0  0  0  0
    3.7667   -8.4542    0.0000 S   0  0  0  0  0  0  0  0  0  0  0  0
    3.6167   -4.6667    0.0000 O   0  0  0  0  0  0  0  0  0  0  0  0
    7.1292   -3.1542    0.0000 C   0  0  0  0  0  0  0  0  0  0  0  0
    6.2042   -2.0667    0.0000 O   0  0  0  0  0  0  0  0  0  0  0  0
    7.9042   -3.4292    0.0000 O   0  0  0  0  0  0  0  0  0  0  0  0
    4.3292   -9.0625    0.0000 C   0  0  0  0  0  0  0  0  0  0  0  0
    8.3792   -2.0792    0.0000 O   0  0  0  0  0  0  0  0  0  0  0  0
    4.8042   -2.3042    0.0000 O   0  0  0  0  0  0  0  0  0  0  0  0
    5.1167   -6.3875    0.0000 O   0  0  0  0  0  0  0  0  0  0  0  0
    4.9792   -7.8917    0.0000 C   0  0  0  0  0  0  0  0  0  0  0  0
    5.0792   -8.7125    0.0000 C   0  0  0  0  0  0  0  0  0  0  0  0
    9.3042   -3.1667    0.0000 N   0  0  0  0  0  0  0  0  0  0  0  0
    3.0792   -2.0542    0.0000 Na  0  0  0  0  0 15  0  0  0  0  0  0
    3.0292   -5.2417    0.0000 C   0  0  0  0  0  0  0  0  0  0  0  0
  2  4  1  0
  3  1  1  0
  4  1  1  0
  5  2  1  0
  4  6  1  6
  1  7  1  6
  8 14  1  0
  9  5  1  0
 10  7  1  0
 11 20  1  0
 12 10  1  0
 13 12  1  0
 14  6  1  0
 15  3  2  0
 16 13  1  0
  1 17  1  0
 18  8  1  0
 19  9  1  0
 20 18  1  0
 21 16  1  0
 22 11  2  0
 23  9  2  0
 24 10  2  0
 25 13  2  0
 26 25  1  0
 27 11  1  0
 29 17  1  0
  3  2  1  0
  8  5  2  0
 21 26  2  0
M  CHG  2  19  -1  28   1
M  END
>  <ID>  (1055) 


>  <MOLENAME>  (1055) 
CEFOXITIN SODIUM

>  <therap>  (1055) 
antibacterial

>  <ref>  (1055) 
Antimicrob Agents Chemother 5:25, 33, 38 (1974); Drugs 17:1 (1979)

>  <cas#>  (1055) 
66309-69-1, 61622-34-2 [cefotiam]

>  <source>  (1055) 
semisynthetic

>  <status>  (1055) 
USP, INN, BAN, JAN

>  <tradename>  (1055) 
MEFOXIN

>  <SMILES>  (1055) 
CO[C@@]1(NC(=O)Cc2cccs2)C(=O)N2C(C(=O)O)=C(COC(N)=O)CS[C@@H]21

>  <standardized_failed>  (1055) 
False

$$$$

     RDKit          2D

 28 31  0  0  0  0  0  0  0  0999 V2000
    3.3625   -2.8833    0.0000 C   0  0  0  0  0  0  0  0  0  0  0  0
    4.0708   -1.6417    0.0000 N   0  0  0  0  0  0  0  0  0  0  0  0
    4.7917   -2.8792    0.0000 C   0  0  0  0  0  0  0  0  0  0  0  0
    3.3625   -2.0583    0.0000 C   0  0  0  0  0  0  0  0  0  0  0  0
    4.0792   -3.2958    0.0000 C   0  0  0  0  0  0  0  0  0  0  0  0
    1.9333   -2.0625    0.0000 C   0  0  0  0  0  0  0  0  0  0  0  0
    2.6458   -1.6458    0.0000 C   0  0  0  0  0  0  0  0  0  0  0  0
    1.9333   -2.8875    0.0000 C   0  0  0  0  0  0  0  0  0  0  0  0
    4.7875   -2.0500    0.0000 C   0  0  0  0  0  0  0  0  0  0  0  0
    1.2208   -1.6417    0.0000 N   0  0  0  0  0  0  0  0  0  0  0  0
    2.6458   -3.3000    0.0000 C   0  0  0  0  0  0  0  0  0  0  0  0
    4.0667   -0.8208    0.0000 C   0  0  0  0  0  0  0  0  0  0  0  0
    5.5083   -3.2875    0.0000 C   0  0  0  0  0  0  0  0  0  0  0  0
   -0.2042   -0.8167    0.0000 N   0  0  0  0  0  0  0  0  0  0  0  0
    3.6458   -0.1167    0.0000 C   0  0  0  0  0  0  0  0  0  0  0  0
    4.4667   -0.1083    0.0000 C   0  0  0  0  0  0  0  0  0  0  0  0
    1.2208   -0.8167    0.0000 C   0  0  0  0  0  0  0  0  0  0  0  0
    0.5083   -2.0583    0.0000 C   0  0  0  0  0  0  0  0  0  0  0  0
    4.0792   -4.1208    0.0000 O   0  0  0  0  0  0  0  0  0  0  0  0
   -0.2083   -1.6417    0.0000 C   0  0  0  0  0  0  0  0  0  0  0  0
    0.5125   -0.4042    0.0000 C   0  0  0  0  0  0  0  0  0  0  0  0
    2.6417   -0.8208    0.0000 F   0  0  0  0  0  0  0  0  0  0  0  0
    1.2167   -3.3000    0.0000 F   0  0  0  0  0  0  0  0  0  0  0  0
    5.5125   -4.1125    0.0000 O   0  0  0  0  0  0  0  0  0  0  0  0
    2.6500   -4.1250    0.0000 N   0  0  0  0  0  0  0  0  0  0  0  0
    6.2208   -2.8750    0.0000 O   0  0  0  0  0  0  0  0  0  0  0  0
   -0.9208   -2.0500    0.0000 C   0  0  0  0  0  0  0  0  0  0  0  0
    0.5125    0.4208    0.0000 C   0  0  0  0  0  0  0  0  0  0  0  0
  2  4  1  0
  3  5  1  0
  4  1  2  0
  5  1  1  0
  6  8  1  0
  7  4  1  0
  8 11  2  0
  9  3  2  0
 10  6  1  0
 11  1  1  0
 12  2  1  0
 13  3  1  0
 14 20  1  0
 15 12  1  0
 16 12  1  0
 17 10  1  0
 18 10  1  0
 19  5  2  0
 20 18  1  0
 21 17  1  0
 22  7  1  0
 23  8  1  0
 24 13  2  0
 25 11  1  0
 26 13  1  0
 20 27  1  6
 28 21  1  0
  6  7  2  0
  2  9  1  0
 16 15  1  0
 14 21  1  0
M  END
>  <ID>  (1056) 


>  <MOLENAME>  (1056) 
SPARFLOXACIN

>  <therap>  (1056) 
antibacterial

>  <ref>  (1056) 
Antimicrob Agents Chemother 33:1167 (1987); 34:89 (1990)

>  <cas#>  (1056) 
110871-86-8

>  <source>  (1056) 
synthetic; CI-978, AT-4140

>  <status>  (1056) 
USAN, INN, BAN, JAN

>  <tradename>  (1056) 
ZAGAM

>  <SMILES>  (1056) 
CC1CN(c2c(F)c3c(c(N)c2F)c(=O)c(C(=O)O)cn3C2CC2)C[C@H](C)N1

>  <standardized_failed>  (1056) 
False

$$$$

     RDKit          2D

 92 93  0  0  0  0  0  0  0  0999 V2000
    9.7542   -2.5500    0.0000 S   0  0  0  0  0  0  0  0  0  0  0  0
    7.9792   -5.9292    0.0000 S   0  0  0  0  0  0  0  0  0  0  0  0
    6.5750   -9.3375    0.0000 S   0  0  0  0  0  0  0  0  0  0  0  0
   12.0417    0.7083    0.0000 S   0  0  0  0  0  0  0  0  0  0  0  0
   12.7542   -2.1917    0.0000 S   0  0  0  0  0  0  0  0  0  0  0  0
    9.3792   -8.4000    0.0000 S   0  0  0  0  0  0  0  0  0  0  0  0
    7.9792   -6.7542    0.0000 C   0  0  0  0  0  0  0  0  0  0  0  0
   10.6000   -1.7792    0.0000 C   0  0  0  0  0  0  0  0  0  0  0  0
    7.2667   -7.1667    0.0000 C   0  0  0  0  0  0  0  0  0  0  0  0
   10.6000   -0.9500    0.0000 C   0  0  0  0  0  0  0  0  0  0  0  0
    7.2667   -7.9917    0.0000 C   0  0  0  0  0  0  0  0  0  0  0  0
   11.3167   -0.5375    0.0000 C   0  0  0  0  0  0  0  0  0  0  0  0
    6.5542   -8.4042    0.0000 C   0  0  0  0  0  0  0  0  0  0  0  0
   11.3167    0.2958    0.0000 C   0  0  0  0  0  0  0  0  0  0  0  0
   12.0292   -1.7792    0.0000 C   0  0  0  0  0  0  0  0  0  0  0  0
    8.6917   -7.9917    0.0000 C   0  0  0  0  0  0  0  0  0  0  0  0
    6.5542   -6.7542    0.0000 C   0  0  0  0  0  0  0  0  0  0  0  0
    9.8792   -0.5375    0.0000 C   0  0  0  0  0  0  0  0  0  0  0  0
   11.3125   -2.1917    0.0000 C   0  0  0  0  0  0  0  0  0  0  0  0
    8.6917   -7.1667    0.0000 C   0  0  0  0  0  0  0  0  0  0  0  0
    5.8000   -5.4875    0.0000 C   0  0  0  0  0  0  0  0  0  0  0  0
    8.5500   -0.5875    0.0000 C   0  0  0  0  0  0  0  0  0  0  0  0
    3.5917   -3.4542    0.0000 C   0  0  0  0  0  0  0  0  0  0  0  0
    5.6917    0.2333    0.0000 C   0  0  0  0  0  0  0  0  0  0  0  0
    6.5542   -5.9292    0.0000 N   0  0  0  0  0  0  0  0  0  0  0  0
    9.2917   -0.9042    0.0000 N   0  0  0  0  0  0  0  0  0  0  0  0
    2.8292   -0.5875    0.0000 C   0  0  0  0  0  0  0  0  0  0  0  0
   12.0292   -0.9500    0.0000 C   0  0  0  0  0  0  0  0  0  0  0  0
    7.9792   -8.4042    0.0000 C   0  0  0  0  0  0  0  0  0  0  0  0
    5.6875   -0.5917    0.0000 N   0  0  0  0  0  0  0  0  0  0  0  0
    4.3000   -3.0292    0.0000 N   0  0  0  0  0  0  0  0  0  0  0  0
    5.0292   -3.4292    0.0000 C   0  0  0  0  0  0  0  0  0  0  0  0
    6.4000   -1.0042    0.0000 C   0  0  0  0  0  0  0  0  0  0  0  0
    7.8292   -1.0042    0.0000 C   0  0  0  0  0  0  0  0  0  0  0  0
    5.7750   -4.6542    0.0000 C   0  0  0  0  0  0  0  0  0  0  0  0
    7.1125   -0.5917    0.0000 C   0  0  0  0  0  0  0  0  0  0  0  0
    5.0417   -4.2542    0.0000 C   0  0  0  0  0  0  0  0  0  0  0  0
    9.2917   -3.1542    0.0000 O   0  0  0  0  0  0  0  0  0  0  0  0
    8.0125   -4.9917    0.0000 O   0  0  0  0  0  0  0  0  0  0  0  0
   11.6250    1.4333    0.0000 O   0  0  0  0  0  0  0  0  0  0  0  0
    5.5792   -9.4000    0.0000 O   0  0  0  0  0  0  0  0  0  0  0  0
   10.1000   -8.7625    0.0000 O   0  0  0  0  0  0  0  0  0  0  0  0
   13.1750   -1.4667    0.0000 O   0  0  0  0  0  0  0  0  0  0  0  0
    4.9667    0.6583    0.0000 C   0  0  0  0  0  0  0  0  0  0  0  0
    2.8625   -3.0542    0.0000 C   0  0  0  0  0  0  0  0  0  0  0  0
    5.8375   -7.9917    0.0000 C   0  0  0  0  0  0  0  0  0  0  0  0
   10.5917    0.7083    0.0000 C   0  0  0  0  0  0  0  0  0  0  0  0
    2.8292    0.2458    0.0000 N   0  0  0  0  0  0  0  0  0  0  0  0
    2.1167   -1.0000    0.0000 N   0  0  0  0  0  0  0  0  0  0  0  0
   10.3042   -2.9250    0.0000 O   0  0  0  0  0  0  0  0  0  0  0  0
    7.1667   -5.9625    0.0000 O   0  0  0  0  0  0  0  0  0  0  0  0
    8.8792   -5.9292    0.0000 O   0  0  0  0  0  0  0  0  0  0  0  0
    9.2625   -2.0542    0.0000 O   0  0  0  0  0  0  0  0  0  0  0  0
    6.5667  -10.2875    0.0000 O   0  0  0  0  0  0  0  0  0  0  0  0
    7.4667   -9.3167    0.0000 O   0  0  0  0  0  0  0  0  0  0  0  0
   12.7667    1.1250    0.0000 O   0  0  0  0  0  0  0  0  0  0  0  0
   12.4542   -0.0167    0.0000 O   0  0  0  0  0  0  0  0  0  0  0  0
    9.0042   -9.0750    0.0000 O   0  0  0  0  0  0  0  0  0  0  0  0
   13.4792   -2.6125    0.0000 O   0  0  0  0  0  0  0  0  0  0  0  0
   12.3417   -2.9167    0.0000 O   0  0  0  0  0  0  0  0  0  0  0  0
    9.7875   -7.6042    0.0000 O   0  0  0  0  0  0  0  0  0  0  0  0
    9.8792    0.2958    0.0000 C   0  0  0  0  0  0  0  0  0  0  0  0
    5.8375   -7.1667    0.0000 C   0  0  0  0  0  0  0  0  0  0  0  0
    6.4000   -1.8375    0.0000 C   0  0  0  0  0  0  0  0  0  0  0  0
    5.7375   -2.9917    0.0000 C   0  0  0  0  0  0  0  0  0  0  0  0
    3.5417   -1.0000    0.0000 O   0  0  0  0  0  0  0  0  0  0  0  0
    8.5125    0.2833    0.0000 O   0  0  0  0  0  0  0  0  0  0  0  0
    3.6042   -4.2875    0.0000 O   0  0  0  0  0  0  0  0  0  0  0  0
    6.4042    0.6458    0.0000 O   0  0  0  0  0  0  0  0  0  0  0  0
    5.1042   -5.8417    0.0000 O   0  0  0  0  0  0  0  0  0  0  0  0
    4.2542    0.2458    0.0000 C   0  0  0  0  0  0  0  0  0  0  0  0
    2.8417   -2.2250    0.0000 C   0  0  0  0  0  0  0  0  0  0  0  0
    2.1167   -1.8250    0.0000 C   0  0  0  0  0  0  0  0  0  0  0  0
    3.5417    0.6583    0.0000 C   0  0  0  0  0  0  0  0  0  0  0  0
    7.8292   -1.8375    0.0000 C   0  0  0  0  0  0  0  0  0  0  0  0
    6.4792   -4.2292    0.0000 C   0  0  0  0  0  0  0  0  0  0  0  0
    6.4542   -3.3917    0.0000 C   0  0  0  0  0  0  0  0  0  0  0  0
    7.1125   -2.2500    0.0000 C   0  0  0  0  0  0  0  0  0  0  0  0
    4.6667  -10.1500    0.0000 Na  0  0  0  0  0 15  0  0  0  0  0  0
    9.5417   -4.1167    0.0000 Na  0  0  0  0  0 15  0  0  0  0  0  0
   12.7542    2.2500    0.0000 Na  0  0  0  0  0 15  0  0  0  0  0  0
   14.2542   -1.9917    0.0000 Na  0  0  0  0  0 15  0  0  0  0  0  0
    8.8875  -10.1792    0.0000 Na  0  0  0  0  0 15  0  0  0  0  0  0
   11.3542   -7.2417    0.0000 Na  0  0  0  0  0 15  0  0  0  0  0  0
    4.9667    1.4833    0.0000 C   0  0  0  0  0  0  0  0  0  0  0  0
    2.1542   -3.4875    0.0000 C   0  0  0  0  0  0  0  0  0  0  0  0
    4.2542    1.8958    0.0000 C   0  0  0  0  0  0  0  0  0  0  0  0
    1.4250   -3.0875    0.0000 C   0  0  0  0  0  0  0  0  0  0  0  0
    3.5417    1.4833    0.0000 C   0  0  0  0  0  0  0  0  0  0  0  0
    1.4042   -2.2542    0.0000 C   0  0  0  0  0  0  0  0  0  0  0  0
    5.7292   -2.4375    0.0000 C   0  0  0  0  0  0  0  0  0  0  0  0
    5.8250   -2.2167    0.0000 C   0  0  0  0  0  0  0  0  0  0  0  0
  2  7  1  0
  3 13  1  0
  4 14  1  0
  5 15  1  0
  6 16  1  0
  7  9  2  0
  8  1  1  0
  9 17  1  0
 10  8  2  0
 11  9  1  0
 12 10  1  0
 13 46  2  0
 14 12  1  0
 15 19  2  0
 16 29  1  0
 17 25  1  0
 18 10  1  0
 19  8  1  0
 20  7  1  0
 21 35  1  0
 22 26  1  0
 23 45  1  0
 24 30  1  0
 25 21  1  0
 26 18  1  0
 27 48  1  0
 28 15  1  0
 29 11  2  0
 30 33  1  0
 31 23  1  0
 32 31  1  0
 33 36  2  0
 34 22  1  0
 35 37  2  0
 36 34  1  0
 37 32  1  0
 38  1  1  0
 39  2  1  0
 40  4  1  0
 41  3  1  0
 42  6  1  0
 43  5  1  0
 44 24  1  0
 45 72  2  0
 46 63  1  0
 47 62  1  0
 48 74  1  0
 49 27  1  0
 50  1  2  0
 51  2  2  0
 52  2  2  0
 53  1  2  0
 54  3  2  0
 55  3  2  0
 56  4  2  0
 57  4  2  0
 58  6  2  0
 59  5  2  0
 60  5  2  0
 61  6  2  0
 62 18  2  0
 63 17  2  0
 64 78  2  0
 65 32  2  0
 66 27  2  0
 67 22  2  0
 68 23  2  0
 69 24  2  0
 70 21  2  0
 71 44  2  0
 72 73  1  0
 73 49  1  0
 74 71  1  0
 75 34  2  0
 76 77  2  0
 77 65  1  0
 78 75  1  0
 85 44  1  0
 86 88  2  0
 87 85  2  0
 88 90  1  0
 89 87  1  0
 90 73  2  0
 91 65  1  0
 92 64  1  0
 28 12  2  0
 14 47  2  0
 33 64  1  0
 74 89  2  0
 45 86  1  0
 76 35  1  0
 11 13  1  0
 20 16  2  0
M  CHG  8  38  -1  39  -1  40  -1  41  -1  42  -1  43  -1  79   1  80   1
M  CHG  4  81   1  82   1  83   1  84   1
M  END
>  <ID>  (1057) 


>  <MOLENAME>  (1057) 
SURAMIN HEXASODIUM

>  <therap>  (1057) 
antiprotozoal, trypanocidal, antiviral

>  <ref>  (1057) 
Adv Pharmacol Chemother 15:289 (1978); Lancet 2:627 (1985); Arch Intern Med 105:32 (1986); Cancer Cells 2:106 (1990)

>  <cas#>  (1057) 
129-46-4, 145-63-1 [suramin]

>  <source>  (1057) 
synthetic; Bayer-205, 309F, CI1003

>  <status>  (1057) 
USP

>  <tradename>  (1057) 
ANTRYPOL

>  <SMILES>  (1057) 
Cc1c(NC(=O)c2cc(NC(=O)Nc3cccc(C(=O)Nc4cc(C(=O)Nc5ccc(S(=O)(=O)O)c6cc(S(=O)(=O)O)cc(S(=O)(=O)O)c56)ccc4C)c3)ccc2)cc(C(=O)Nc2ccc(S(=O)(=O)O)c3cc(S(=O)(=O)O)cc(S(=O)(=O)O)c23)cc1

>  <standardized_failed>  (1057) 
False

$$$$

     RDKit          2D

 25 27  0  0  0  0  0  0  0  0999 V2000
    3.0458   -3.7583    0.0000 C   0  0  0  0  0  0  0  0  0  0  0  0
    3.7625   -4.1708    0.0000 C   0  0  0  0  0  0  0  0  0  0  0  0
    2.3333   -4.1750    0.0000 C   0  0  0  0  0  0  0  0  0  0  0  0
    1.6167   -3.7625    0.0000 C   0  0  0  0  0  0  0  0  0  0  0  0
    4.6500   -1.5250    0.0000 N   0  0  0  0  0  0  0  0  0  0  0  0
    3.7583   -2.5208    0.0000 N   0  0  0  0  0  0  0  0  0  0  0  0
    3.0458   -2.9333    0.0000 C   0  0  0  0  0  0  0  0  0  0  0  0
    3.7583   -4.9958    0.0000 C   0  0  0  0  0  0  0  0  0  0  0  0
    4.5125   -2.8500    0.0000 N   0  0  0  0  0  0  0  0  0  0  0  0
    5.0625   -2.2375    0.0000 C   0  0  0  0  0  0  0  0  0  0  0  0
    3.8417   -1.6958    0.0000 C   0  0  0  0  0  0  0  0  0  0  0  0
    4.4708   -3.7542    0.0000 C   0  0  0  0  0  0  0  0  0  0  0  0
    0.9000   -4.1750    0.0000 C   0  0  0  0  0  0  0  0  0  0  0  0
    1.6167   -2.9333    0.0000 N   0  0  0  0  0  0  0  0  0  0  0  0
    4.4750   -5.4042    0.0000 C   0  0  0  0  0  0  0  0  0  0  0  0
    0.1875   -2.9375    0.0000 N   0  0  0  0  0  0  0  0  0  0  0  0
    3.7542   -3.3417    0.0000 O   0  0  0  0  0  0  0  0  0  0  0  0
    0.9000   -2.5208    0.0000 C   0  0  0  0  0  0  0  0  0  0  0  0
    5.1875   -4.9917    0.0000 C   0  0  0  0  0  0  0  0  0  0  0  0
    3.0458   -5.4083    0.0000 F   0  0  0  0  0  0  0  0  0  0  0  0
    0.9000   -5.0000    0.0000 F   0  0  0  0  0  0  0  0  0  0  0  0
    5.1833   -4.1625    0.0000 C   0  0  0  0  0  0  0  0  0  0  0  0
    0.1875   -3.7625    0.0000 C   0  0  0  0  0  0  0  0  0  0  0  0
    5.9042   -5.4042    0.0000 F   0  0  0  0  0  0  0  0  0  0  0  0
    2.3333   -5.0000    0.0000 C   0  0  0  0  0  0  0  0  0  0  0  0
  2  1  1  0
  3  1  1  0
  4  3  1  0
  5 11  2  0
  6  7  1  0
  7  1  1  0
  8  2  2  0
  9  6  1  0
 10  9  2  0
 11  6  1  0
 12  2  1  0
 13  4  2  0
 14  4  1  0
 15  8  1  0
 16 18  1  0
  1 17  1  1
 18 14  2  0
 19 15  2  0
 20  8  1  0
 21 13  1  0
 22 12  2  0
 23 13  1  0
 24 19  1  0
  3 25  1  1
 22 19  1  0
 23 16  2  0
  5 10  1  0
M  END
>  <ID>  (1058) 


>  <MOLENAME>  (1058) 
VORICONAZOLE

>  <therap>  (1058) 
antifungal

>  <ref>  (1058) 
Antimicrob Agents Chemother 41:2492 (1997), 42:161 (1998); 46:2546 (2002); N Engl J Med 346:225 (2002)

>  <cas#>  (1058) 
137234-62-9

>  <source>  (1058) 
synthetic; UK-109496

>  <status>  (1058) 
USAN, INN, BAN

>  <tradename>  (1058) 
VFEND

>  <SMILES>  (1058) 
C[C@@H](c1c(F)cncn1)[C@](O)(Cn1cncn1)c1c(F)cc(F)cc1

>  <standardized_failed>  (1058) 
False

$$$$

     RDKit          2D

 15 16  0  0  0  0  0  0  0  0999 V2000
    6.6375   -5.5750    0.0000 N   0  0  0  0  0  0  0  0  0  0  0  0
    5.9250   -5.1625    0.0000 C   0  0  0  0  0  0  0  0  0  0  0  0
    5.9250   -4.3375    0.0000 N   0  0  0  0  0  0  0  0  0  0  0  0
    6.6375   -6.4000    0.0000 C   0  0  0  0  0  0  0  0  0  0  0  0
    7.3542   -5.1625    0.0000 C   0  0  0  0  0  0  0  0  0  0  0  0
    5.9750   -6.8875    0.0000 O   0  0  0  0  0  0  0  0  0  0  0  0
    7.3542   -4.3333    0.0000 C   0  0  0  0  0  0  0  0  0  0  0  0
    6.6375   -3.9208    0.0000 C   0  0  0  0  0  0  0  0  0  0  0  0
    7.0583   -7.6708    0.0000 S   0  0  0  0  0  0  0  0  0  0  0  0
    6.2333   -7.6708    0.0000 C   0  0  0  0  0  0  0  0  0  0  0  0
    5.2083   -5.5750    0.0000 O   0  0  0  0  0  0  0  0  0  0  0  0
    7.3125   -6.8875    0.0000 C   0  0  0  0  0  0  0  0  0  0  0  0
    6.6333   -3.0958    0.0000 N   0  0  0  0  0  0  0  0  0  0  0  0
    4.9250   -8.2500    0.0000 O   0  0  0  0  0  0  0  0  0  0  0  0
    5.7458   -8.3375    0.0000 C   0  0  0  0  0  0  0  0  0  0  0  0
  2  1  1  0
  3  2  1  0
  1  4  1  0
  5  1  1  0
  6  4  1  0
  7  5  2  0
  8  3  2  0
  9 12  1  0
 10  6  1  0
 11  2  2  0
 12  4  1  0
 13  8  1  0
 14 15  1  0
 15 10  1  0
  9 10  1  0
  8  7  1  0
M  END
>  <ID>  (1059) 


>  <MOLENAME>  (1059) 
LAMIVUDINE

>  <therap>  (1059) 
antiviral

>  <ref>  (1059) 
J. Med. Chem. (1993), 36(2), 181-95; J. Biol. Chem. (1992), 267(31), 22414-20; Antimicrob. Agents Chemother. (1992), 36(1), 202-5

>  <cas#>  (1059) 
134678-17-4

>  <source>  (1059) 
synthetic; GR-109714X

>  <status>  (1059) 
USP, INN, BAN

>  <tradename>  (1059) 
EPIVIR

>  <SMILES>  (1059) 
Nc1nc(=O)n(C2CSC(CO)O2)cc1

>  <standardized_failed>  (1059) 
False

$$$$

     RDKit          2D

 30 31  0  0  0  0  0  0  0  0999 V2000
    5.7292   -3.9292    0.0000 N   0  0  0  0  0  0  0  0  0  0  0  0
    4.9167   -4.0667    0.0000 C   0  0  0  0  0  0  0  0  0  0  0  0
    5.0542   -4.8792    0.0000 C   0  0  0  0  0  0  0  0  0  0  0  0
    5.8667   -4.7417    0.0000 C   0  0  0  0  0  0  0  0  0  0  0  0
    6.3542   -3.4042    0.0000 C   0  0  0  0  0  0  0  0  0  0  0  0
    4.5792   -5.5625    0.0000 N   0  0  0  0  0  0  0  0  0  0  0  0
    4.9292   -6.3125    0.0000 C   0  0  0  0  0  0  0  0  0  0  0  0
    4.4542   -6.9875    0.0000 C   0  0  0  0  0  0  0  0  0  0  0  0
    6.6417   -5.0250    0.0000 S   0  0  0  0  0  0  0  0  0  0  0  0
    7.1292   -3.6875    0.0000 C   0  0  0  0  0  0  0  0  0  0  0  0
    6.2167   -2.5917    0.0000 C   0  0  0  0  0  0  0  0  0  0  0  0
    4.8042   -7.7375    0.0000 C   0  0  0  0  0  0  0  0  0  0  0  0
    9.1750   -2.9042    0.0000 C   0  0  0  0  0  0  0  0  0  0  0  0
    7.2750   -4.4917    0.0000 C   0  0  0  0  0  0  0  0  0  0  0  0
    3.6292   -6.9875    0.0000 N   0  0  0  0  0  0  0  0  0  0  0  0
    4.2292   -3.5917    0.0000 O   0  0  0  0  0  0  0  0  0  0  0  0
    4.4042   -8.4542    0.0000 O   0  0  0  0  0  0  0  0  0  0  0  0
    7.7667   -3.1542    0.0000 C   0  0  0  0  0  0  0  0  0  0  0  0
    5.7542   -6.3875    0.0000 O   0  0  0  0  0  0  0  0  0  0  0  0
    6.8417   -2.0667    0.0000 O   0  0  0  0  0  0  0  0  0  0  0  0
    5.6167   -7.8917    0.0000 C   0  0  0  0  0  0  0  0  0  0  0  0
    8.5417   -3.4292    0.0000 O   0  0  0  0  0  0  0  0  0  0  0  0
    9.0292   -2.0917    0.0000 O   0  0  0  0  0  0  0  0  0  0  0  0
    5.4417   -2.3042    0.0000 O   0  0  0  0  0  0  0  0  0  0  0  0
    4.9667   -9.0625    0.0000 C   0  0  0  0  0  0  0  0  0  0  0  0
    5.7167   -8.7125    0.0000 C   0  0  0  0  0  0  0  0  0  0  0  0
    9.9500   -3.1875    0.0000 N   0  0  0  0  0  0  0  0  0  0  0  0
    3.2125   -7.7000    0.0000 O   0  0  0  0  0  0  0  0  0  0  0  0
    3.6417   -1.9667    0.0000 Na  0  0  0  0  0 15  0  0  0  0  0  0
    2.3792   -7.6917    0.0000 C   0  0  0  0  0  0  0  0  0  0  0  0
  2  1  1  0
  3  4  1  0
  4  1  1  0
  5  1  1  0
  6  3  1  0
  7  6  1  0
  8  7  1  0
  9  4  1  0
 10  5  2  0
 11  5  1  0
 12  8  1  0
 13 22  1  0
 14 10  1  0
 15  8  2  0
 16  2  2  0
 17 12  1  0
 18 10  1  0
 19  7  2  0
 20 11  1  0
 21 12  2  0
 22 18  1  0
 23 13  2  0
 24 11  2  0
 25 17  1  0
 26 21  1  0
 27 13  1  0
 28 15  1  0
 30 28  1  0
  2  3  1  0
  9 14  1  0
 25 26  2  0
M  CHG  2  20  -1  29   1
M  END
>  <ID>  (1060) 


>  <MOLENAME>  (1060) 
CEFUROXIME SODIUM

>  <therap>  (1060) 
antibacterial

>  <ref>  (1060) 
Antimicrob Agents Chemother 9:511 (1976); 12:47 (1977); Drugs 17:233 (1979)

>  <cas#>  (1060) 
56238-63-2

>  <source>  (1060) 
semisynthetic

>  <status>  (1060) 
USAN, INN, BAN

>  <tradename>  (1060) 
ZINACEF

>  <SMILES>  (1060) 
CO/N=C(/C(=O)NC1C(=O)N2C(C(=O)O)=C(COC(N)=O)CSC12)c1ccco1

>  <standardized_failed>  (1060) 
False

$$$$

     RDKit          2D

 17 18  0  0  0  0  0  0  0  0999 V2000
    6.4917   -0.2417    0.0000 N   0  0  0  0  0  0  0  0  0  0  0  0
    6.4917    0.5833    0.0000 C   0  0  0  0  0  0  0  0  0  0  0  0
    7.2000    1.0000    0.0000 N   0  0  0  0  0  0  0  0  0  0  0  0
    5.7750   -0.6542    0.0000 C   0  0  0  0  0  0  0  0  0  0  0  0
    7.2000   -0.6500    0.0000 C   0  0  0  0  0  0  0  0  0  0  0  0
    7.9125   -0.2417    0.0000 C   0  0  0  0  0  0  0  0  0  0  0  0
    7.9125    0.5833    0.0000 C   0  0  0  0  0  0  0  0  0  0  0  0
    5.0250   -0.3167    0.0000 O   0  0  0  0  0  0  0  0  0  0  0  0
    5.6958   -1.4708    0.0000 C   0  0  0  0  0  0  0  0  0  0  0  0
    4.4750   -0.9292    0.0000 C   0  0  0  0  0  0  0  0  0  0  0  0
    4.8875   -1.6458    0.0000 C   0  0  0  0  0  0  0  0  0  0  0  0
    5.7750    0.9958    0.0000 O   0  0  0  0  0  0  0  0  0  0  0  0
    8.6292    0.9958    0.0000 O   0  0  0  0  0  0  0  0  0  0  0  0
    8.6292   -0.6542    0.0000 I   0  0  0  0  0  0  0  0  0  0  0  0
    4.4667   -2.3542    0.0000 O   0  0  0  0  0  0  0  0  0  0  0  0
    3.6542   -0.8458    0.0000 C   0  0  0  0  0  0  0  0  0  0  0  0
    3.3167   -0.0917    0.0000 O   0  0  0  0  0  0  0  0  0  0  0  0
  2  1  1  0
  3  2  1  0
  4  1  1  1
  5  1  1  0
  6  5  2  0
  7  3  1  0
  8  4  1  0
  9  4  1  0
 10  8  1  0
 11  9  1  0
 12  2  2  0
 13  7  2  0
 14  6  1  0
 11 15  1  6
 16 10  1  0
 17 16  1  0
  7  6  1  0
 11 10  1  0
M  END
>  <ID>  (1061) 


>  <MOLENAME>  (1061) 
IDOXURIDINE

>  <therap>  (1061) 
antiviral

>  <ref>  (1061) 
Biochim Biophys Acta 32:295 (1959); J Med Chem 6:428 (1963); Brit Med J 2:989 (1964); Ann Surg Oncology 5:106 (1998)

>  <cas#>  (1061) 
54-42-2

>  <source>  (1061) 
synthetic; Allergan-211, SK&F-14287

>  <status>  (1061) 
USP, INN, BAN, JAN

>  <tradename>  (1061) 
DENDRID

>  <SMILES>  (1061) 
O=c1[nH]c(=O)n([C@H]2C[C@H](O)C(CO)O2)cc1I

>  <standardized_failed>  (1061) 
False

$$$$

     RDKit          2D

 26 27  0  0  0  0  0  0  0  0999 V2000
    8.3042   -6.1042    0.0000 C   0  0  0  0  0  0  0  0  0  0  0  0
    6.8542   -6.1042    0.0000 C   0  0  0  0  0  0  0  0  0  0  0  0
    7.5792   -4.8500    0.0000 N   0  0  0  0  0  0  0  0  0  0  0  0
    6.8667   -5.2750    0.0000 C   0  0  0  0  0  0  0  0  0  0  0  0
    7.5792   -6.5167    0.0000 C   0  0  0  0  0  0  0  0  0  0  0  0
    6.1417   -4.8625    0.0000 C   0  0  0  0  0  0  0  0  0  0  0  0
    8.3042   -5.2750    0.0000 C   0  0  0  0  0  0  0  0  0  0  0  0
    5.4292   -5.2750    0.0000 C   0  0  0  0  0  0  0  0  0  0  0  0
    4.7167   -4.8542    0.0000 N   0  0  0  0  0  0  0  0  0  0  0  0
    5.4292   -6.1000    0.0000 C   0  0  0  0  0  0  0  0  0  0  0  0
    6.1417   -6.5125    0.0000 C   0  0  0  0  0  0  0  0  0  0  0  0
    9.0167   -6.5250    0.0000 C   0  0  0  0  0  0  0  0  0  0  0  0
    4.0042   -5.2750    0.0000 C   0  0  0  0  0  0  0  0  0  0  0  0
    7.5667   -7.3417    0.0000 O   0  0  0  0  0  0  0  0  0  0  0  0
    3.2917   -4.0292    0.0000 N   0  0  0  0  0  0  0  0  0  0  0  0
    9.7292   -6.1125    0.0000 O   0  0  0  0  0  0  0  0  0  0  0  0
    6.1417   -4.0375    0.0000 F   0  0  0  0  0  0  0  0  0  0  0  0
    4.7167   -6.5125    0.0000 F   0  0  0  0  0  0  0  0  0  0  0  0
    4.7167   -4.0292    0.0000 C   0  0  0  0  0  0  0  0  0  0  0  0
    7.5792   -4.0250    0.0000 C   0  0  0  0  0  0  0  0  0  0  0  0
    3.2917   -4.8542    0.0000 C   0  0  0  0  0  0  0  0  0  0  0  0
    9.0167   -7.3500    0.0000 O   0  0  0  0  0  0  0  0  0  0  0  0
    4.0167   -3.6167    0.0000 C   0  0  0  0  0  0  0  0  0  0  0  0
    1.8917   -4.4917    0.0000 Cl  0  0  0  0  0  0  0  0  0  0  0  0
    2.5792   -5.2625    0.0000 C   0  0  0  0  0  0  0  0  0  0  0  0
    8.2917   -3.6125    0.0000 C   0  0  0  0  0  0  0  0  0  0  0  0
  2  5  1  0
  3  7  1  0
  4  3  1  0
  5  1  1  0
  6  4  2  0
  7  1  2  0
  8  6  1  0
  9  8  1  0
 10 11  1  0
 11  2  2  0
 12  1  1  0
 13  9  1  0
 14  5  2  0
 15 23  1  0
 16 12  2  0
 17  6  1  0
 18 10  1  0
 19  9  1  0
 20  3  1  0
 21 13  1  0
 22 12  1  0
 23 19  1  0
 25 21  1  0
 26 20  1  0
  4  2  1  0
  8 10  2  0
 15 21  1  0
M  END
>  <ID>  (1062) 


>  <MOLENAME>  (1062) 
LOMEFLOXACIN HYDROCHLORIDE

>  <therap>  (1062) 
antibacterial

>  <ref>  (1062) 
Drugs (1991), 42(6), 1018-60; Antimicrob. Agents Chemother. (1988), 32(5), 656-62; Antimicrob. Agents Chemother. (1987), 31(6), 854-9

>  <cas#>  (1062) 
98079-52-8, 98079-51-7 (lomefloxacin)

>  <source>  (1062) 
synthetic; NY-198, SC-47111A

>  <status>  (1062) 
USAN, JAN

>  <tradename>  (1062) 
MAXAQUIN

>  <SMILES>  (1062) 
CCn1cc(C(=O)O)c(=O)c2cc(F)c(N3CCNC(C)C3)c(F)c21

>  <standardized_failed>  (1062) 
False

$$$$

     RDKit          2D

 13 12  0  0  0  0  0  0  0  0999 V2000
    9.4792   -4.3417    0.0000 C   0  0  0  0  0  0  0  0  0  0  0  0
    9.8500   -3.7042    0.0000 C   0  0  0  0  0  0  0  0  0  0  0  0
    9.1125   -4.9917    0.0000 C   0  0  0  0  0  0  0  0  0  0  0  0
    8.8167   -4.1917    0.0000 C   0  0  0  0  0  0  0  0  0  0  0  0
    9.4875   -3.0792    0.0000 C   0  0  0  0  0  0  0  0  0  0  0  0
    9.4792   -5.6167    0.0000 C   0  0  0  0  0  0  0  0  0  0  0  0
    8.4917   -3.6417    0.0000 O   0  0  0  0  0  0  0  0  0  0  0  0
   10.2042   -5.6167    0.0000 O   0  0  0  0  0  0  0  0  0  0  0  0
    8.7542   -3.0792    0.0000 O   0  0  0  0  0  0  0  0  0  0  0  0
   10.1167   -4.7167    0.0000 O   0  0  0  0  0  0  0  0  0  0  0  0
    8.3250   -4.7417    0.0000 O   0  0  0  0  0  0  0  0  0  0  0  0
    9.1125   -6.2542    0.0000 O   0  0  0  0  0  0  0  0  0  0  0  0
    9.8500   -2.4417    0.0000 O   0  0  0  0  0  0  0  0  0  0  0  0
  2  1  1  0
  3  1  1  0
  4  1  1  0
  5  2  1  0
  6  3  1  0
  7  4  2  0
  8  6  2  0
  9  5  2  0
 10  1  1  0
 11  4  1  0
 12  6  1  0
 13  5  1  0
M  END
>  <ID>  (1063) 


>  <MOLENAME>  (1063) 
CITRIC ACID

>  <therap>  (1063) 
nan

>  <ref>  (1063) 
Comp. Clin. Pathol. (2011), 20(5), 543-545; Vitam. Horm. (1970), 28, 345-63

>  <cas#>  (1063) 
77-92-9

>  <source>  (1063) 
widespread in nature

>  <status>  (1063) 
USP

>  <tradename>  (1063) 
nan

>  <SMILES>  (1063) 
O=C(O)CC(O)(CC(=O)O)C(=O)O

>  <standardized_failed>  (1063) 
False

$$$$

     RDKit          2D

 32 34  0  0  0  0  0  0  0  0999 V2000
    4.8917   -4.0417    0.0000 N   0  0  0  0  0  0  0  0  0  0  0  0
    4.0792   -4.1875    0.0000 C   0  0  0  0  0  0  0  0  0  0  0  0
    4.2167   -5.0000    0.0000 C   0  0  0  0  0  0  0  0  0  0  0  0
    5.0292   -4.8542    0.0000 C   0  0  0  0  0  0  0  0  0  0  0  0
    8.3292   -3.0167    0.0000 C   0  0  0  0  0  0  0  0  0  0  0  0
    5.5167   -3.5167    0.0000 C   0  0  0  0  0  0  0  0  0  0  0  0
    8.2667   -2.2000    0.0000 N   0  0  0  0  0  0  0  0  0  0  0  0
    9.1292   -3.2167    0.0000 N   0  0  0  0  0  0  0  0  0  0  0  0
    9.5667   -2.5167    0.0000 N   0  0  0  0  0  0  0  0  0  0  0  0
    9.0417   -1.8875    0.0000 N   0  0  0  0  0  0  0  0  0  0  0  0
    3.7417   -5.6750    0.0000 N   0  0  0  0  0  0  0  0  0  0  0  0
    5.8042   -5.1375    0.0000 S   0  0  0  0  0  0  0  0  0  0  0  0
    6.2917   -3.8000    0.0000 C   0  0  0  0  0  0  0  0  0  0  0  0
    4.0917   -6.4250    0.0000 C   0  0  0  0  0  0  0  0  0  0  0  0
    5.3792   -2.7042    0.0000 C   0  0  0  0  0  0  0  0  0  0  0  0
    7.7042   -3.5500    0.0000 S   0  0  0  0  0  0  0  0  0  0  0  0
    6.4292   -4.6125    0.0000 C   0  0  0  0  0  0  0  0  0  0  0  0
    3.6167   -7.1000    0.0000 C   0  0  0  0  0  0  0  0  0  0  0  0
    3.3917   -3.7125    0.0000 O   0  0  0  0  0  0  0  0  0  0  0  0
    6.9292   -3.2667    0.0000 C   0  0  0  0  0  0  0  0  0  0  0  0
    4.9167   -6.5000    0.0000 O   0  0  0  0  0  0  0  0  0  0  0  0
    6.0042   -2.1792    0.0000 O   0  0  0  0  0  0  0  0  0  0  0  0
    4.6042   -2.4250    0.0000 O   0  0  0  0  0  0  0  0  0  0  0  0
    3.9667   -7.8500    0.0000 C   0  0  0  0  0  0  0  0  0  0  0  0
    7.5667   -1.7625    0.0000 C   0  0  0  0  0  0  0  0  0  0  0  0
    2.7917   -7.0250    0.0000 O   0  0  0  0  0  0  0  0  0  0  0  0
    2.5792   -2.1792    0.0000 Na  0  0  0  0  0 15  0  0  0  0  0  0
    4.7792   -7.9167    0.0000 C   0  0  0  0  0  0  0  0  0  0  0  0
    3.4792   -8.5250    0.0000 C   0  0  0  0  0  0  0  0  0  0  0  0
    3.8292   -9.2750    0.0000 C   0  0  0  0  0  0  0  0  0  0  0  0
    5.1292   -8.6625    0.0000 C   0  0  0  0  0  0  0  0  0  0  0  0
    4.6542   -9.3500    0.0000 C   0  0  0  0  0  0  0  0  0  0  0  0
  2  1  1  0
  3  4  1  0
  4  1  1  0
  5 16  1  0
  6  1  1  0
  7  5  1  0
  8  5  2  0
  9  8  1  0
 10  7  1  0
 11  3  1  0
 12  4  1  0
 13  6  2  0
 14 11  1  0
 15  6  1  0
 16 20  1  0
 17 13  1  0
 18 14  1  0
 19  2  2  0
 20 13  1  0
 21 14  2  0
 22 15  1  0
 23 15  2  0
 24 18  1  0
 25  7  1  0
 26 18  1  0
 28 24  2  0
 29 24  1  0
 30 29  2  0
 31 28  1  0
 32 31  2  0
  2  3  1  0
 12 17  1  0
  9 10  2  0
 30 32  1  0
M  CHG  2  22  -1  27   1
M  END
>  <ID>  (1064) 


>  <MOLENAME>  (1064) 
CEFAMANDOLE SODIUM

>  <therap>  (1064) 
antibacterial

>  <ref>  (1064) 
Antimicrob Agents Chemother 1:221 (1972); 3:657 (1973); 6:177 (1974); 9:140, 10:814 (1976)

>  <cas#>  (1064) 
34444-01-4

>  <source>  (1064) 
semisynthetic; cmpd 83405, CMT

>  <status>  (1064) 
USAN, INN, BAN

>  <tradename>  (1064) 
nan

>  <SMILES>  (1064) 
Cn1nnnc1SCC1=C(C(=O)O)N2C(=O)C(NC(=O)C(O)c3ccccc3)C2SC1

>  <standardized_failed>  (1064) 
False

$$$$

     RDKit          2D

 24 26  0  0  0  0  0  0  0  0999 V2000
    7.1667   -2.4292    0.0000 C   0  0  0  0  0  0  0  0  0  0  0  0
    7.5000   -3.1833    0.0000 N   0  0  0  0  0  0  0  0  0  0  0  0
    8.3208   -3.0958    0.0000 N   0  0  0  0  0  0  0  0  0  0  0  0
    7.7792   -1.8792    0.0000 C   0  0  0  0  0  0  0  0  0  0  0  0
    6.3625   -2.2542    0.0000 C   0  0  0  0  0  0  0  0  0  0  0  0
    4.2042   -0.5625    0.0000 N   0  0  0  0  0  0  0  0  0  0  0  0
    8.4917   -2.2917    0.0000 C   0  0  0  0  0  0  0  0  0  0  0  0
    6.1083   -1.4708    0.0000 N   0  0  0  0  0  0  0  0  0  0  0  0
    4.8792    0.0458    0.0000 C   0  0  0  0  0  0  0  0  0  0  0  0
    3.8917   -1.4917    0.0000 C   0  0  0  0  0  0  0  0  0  0  0  0
    6.1250   -0.6750    0.0000 C   0  0  0  0  0  0  0  0  0  0  0  0
    5.7042    0.0458    0.0000 C   0  0  0  0  0  0  0  0  0  0  0  0
    5.1250   -1.2917    0.0000 C   0  0  0  0  0  0  0  0  0  0  0  0
    5.8083   -2.8667    0.0000 O   0  0  0  0  0  0  0  0  0  0  0  0
    8.8708   -3.7125    0.0000 C   0  0  0  0  0  0  0  0  0  0  0  0
    7.7792   -1.0500    0.0000 C   0  0  0  0  0  0  0  0  0  0  0  0
    5.2375   -0.5000    0.0000 C   0  0  0  0  0  0  0  0  0  0  0  0
    6.7417    1.3208    0.0000 Cl  0  0  0  0  0  0  0  0  0  0  0  0
    9.2083   -1.8792    0.0000 C   0  0  0  0  0  0  0  0  0  0  0  0
    3.2750   -1.1500    0.0000 C   0  0  0  0  0  0  0  0  0  0  0  0
    3.6500   -0.4000    0.0000 C   0  0  0  0  0  0  0  0  0  0  0  0
    2.7417   -0.2417    0.0000 C   0  0  0  0  0  0  0  0  0  0  0  0
    8.4917   -0.6375    0.0000 C   0  0  0  0  0  0  0  0  0  0  0  0
    9.2083   -1.0500    0.0000 C   0  0  0  0  0  0  0  0  0  0  0  0
  2  1  2  0
  3  2  1  0
  4  1  1  0
  5  1  1  0
  6  9  1  0
  7  4  2  0
  8  5  1  0
  9 12  1  0
 10 13  1  0
 11  8  1  0
 12 11  1  0
 13 11  1  0
 14  5  2  0
 15  3  1  0
 16  4  1  0
 17  6  1  0
 19  7  1  0
 20 10  1  0
 21  9  1  0
 22 21  1  0
 23 16  2  0
 24 19  2  0
  7  3  1  0
 23 24  1  0
 10  6  1  0
 20 22  1  0
M  END
>  <ID>  (1065) 


>  <MOLENAME>  (1065) 
GRANISETRON HYDROCHLORIDE

>  <therap>  (1065) 
antiemetic

>  <ref>  (1065) 
Nature 330:746 (1987); Semin Oncol 22 Suppl 10:1 (1995)

>  <cas#>  (1065) 
107007-99-8

>  <source>  (1065) 
synthetic; BRL-43694A

>  <status>  (1065) 
USAN, INN, BAN

>  <tradename>  (1065) 
KYTRIL

>  <SMILES>  (1065) 
CN1C2CCCC1CC(NC(=O)c1nn(C)c3c1cccc3)C2

>  <standardized_failed>  (1065) 
False

$$$$

     RDKit          2D

 19 21  0  0  0  0  0  0  0  0999 V2000
    5.6250   -2.9125    0.0000 C   0  0  0  0  0  0  0  0  0  0  0  0
    5.6250   -2.0875    0.0000 C   0  0  0  0  0  0  0  0  0  0  0  0
    4.9083   -3.3292    0.0000 N   0  0  0  0  0  0  0  0  0  0  0  0
    4.1958   -2.0875    0.0000 N   0  0  0  0  0  0  0  0  0  0  0  0
    4.1958   -2.9167    0.0000 C   0  0  0  0  0  0  0  0  0  0  0  0
    4.9083   -1.6750    0.0000 C   0  0  0  0  0  0  0  0  0  0  0  0
    6.4083   -3.1667    0.0000 N   0  0  0  0  0  0  0  0  0  0  0  0
    6.4083   -1.8292    0.0000 N   0  0  0  0  0  0  0  0  0  0  0  0
    6.8958   -2.5000    0.0000 C   0  0  0  0  0  0  0  0  0  0  0  0
    6.6625   -1.0458    0.0000 C   0  0  0  0  0  0  0  0  0  0  0  0
    3.4792   -3.3292    0.0000 O   0  0  0  0  0  0  0  0  0  0  0  0
    4.9042   -0.8500    0.0000 O   0  0  0  0  0  0  0  0  0  0  0  0
    7.4708   -0.8750    0.0000 C   0  0  0  0  0  0  0  0  0  0  0  0
    8.0792   -1.4250    0.0000 O   0  0  0  0  0  0  0  0  0  0  0  0
    7.8042   -0.1208    0.0000 O   0  0  0  0  0  0  0  0  0  0  0  0
    4.9125   -4.1542    0.0000 C   0  0  0  0  0  0  0  0  0  0  0  0
    3.4833   -1.6792    0.0000 C   0  0  0  0  0  0  0  0  0  0  0  0
    8.6208   -0.2083    0.0000 C   0  0  0  0  0  0  0  0  0  0  0  0
    8.7958   -1.0125    0.0000 C   0  0  0  0  0  0  0  0  0  0  0  0
  2  1  2  0
  3  1  1  0
  4  5  1  0
  5  3  1  0
  6  2  1  0
  7  1  1  0
  8  2  1  0
  9  7  2  0
 10  8  1  0
 11  5  2  0
 12  6  2  0
 13 10  1  0
 14 13  1  0
 15 13  1  0
 16  3  1  0
 17  4  1  0
 18 15  1  0
 19 14  1  0
  8  9  1  0
  4  6  1  0
 18 19  1  0
M  END
>  <ID>  (1066) 


>  <MOLENAME>  (1066) 
DOXOFYLLINE

>  <therap>  (1066) 
bronchdilator

>  <ref>  (1066) 
Farmaco Ed Sci 36:201, 220 (1981); Int J Clin Pharmacol Res 11 Suppl 1:101 (1982)

>  <cas#>  (1066) 
69975-86-6

>  <source>  (1066) 
synthetic; ABC-12/3

>  <status>  (1066) 
USAN, INN

>  <tradename>  (1066) 
MAXIVENT

>  <SMILES>  (1066) 
Cn1c(=O)c2c(ncn2CC2OCCO2)n(C)c1=O

>  <standardized_failed>  (1066) 
False

$$$$

     RDKit          2D

 26 28  0  0  0  0  0  0  0  0999 V2000
    5.2667   -1.8542    0.0000 C   0  0  0  0  0  0  0  0  0  0  0  0
    4.5542   -2.2708    0.0000 C   0  0  0  0  0  0  0  0  0  0  0  0
    5.2625   -1.0250    0.0000 C   0  0  0  0  0  0  0  0  0  0  0  0
    5.9833   -2.2625    0.0000 C   0  0  0  0  0  0  0  0  0  0  0  0
    8.8333   -0.6083    0.0000 N   0  0  0  0  0  0  0  0  0  0  0  0
    4.5458   -0.6167    0.0000 O   0  0  0  0  0  0  0  0  0  0  0  0
    3.8375   -1.8583    0.0000 C   0  0  0  0  0  0  0  0  0  0  0  0
    3.8375   -1.0333    0.0000 C   0  0  0  0  0  0  0  0  0  0  0  0
    8.1208   -1.0250    0.0000 C   0  0  0  0  0  0  0  0  0  0  0  0
    6.6958   -1.8500    0.0000 C   0  0  0  0  0  0  0  0  0  0  0  0
    9.5500   -1.0167    0.0000 O   0  0  0  0  0  0  0  0  0  0  0  0
    5.9750   -0.6083    0.0000 O   0  0  0  0  0  0  0  0  0  0  0  0
    5.9875   -3.0875    0.0000 C   0  0  0  0  0  0  0  0  0  0  0  0
    8.8292    0.2167    0.0000 O   0  0  0  0  0  0  0  0  0  0  0  0
    4.5542   -3.0958    0.0000 O   0  0  0  0  0  0  0  0  0  0  0  0
    7.4000   -0.6125    0.0000 C   0  0  0  0  0  0  0  0  0  0  0  0
    8.1208   -1.8500    0.0000 C   0  0  0  0  0  0  0  0  0  0  0  0
    6.6875   -1.0292    0.0000 C   0  0  0  0  0  0  0  0  0  0  0  0
    7.4083   -2.2625    0.0000 C   0  0  0  0  0  0  0  0  0  0  0  0
    6.7042   -3.5000    0.0000 C   0  0  0  0  0  0  0  0  0  0  0  0
    7.4167   -3.0833    0.0000 O   0  0  0  0  0  0  0  0  0  0  0  0
    3.1208   -2.2750    0.0000 C   0  0  0  0  0  0  0  0  0  0  0  0
    3.1208   -0.6208    0.0000 C   0  0  0  0  0  0  0  0  0  0  0  0
    6.7042   -4.3250    0.0000 C   0  0  0  0  0  0  0  0  0  0  0  0
    2.4083   -1.8625    0.0000 C   0  0  0  0  0  0  0  0  0  0  0  0
    2.4083   -1.0375    0.0000 C   0  0  0  0  0  0  0  0  0  0  0  0
  2  1  2  0
  3  1  1  0
  4  1  1  0
  5  9  1  0
  6  3  1  0
  7  2  1  0
  8  6  1  0
  9 16  2  0
 10  4  1  0
 11  5  1  0
 12  3  2  0
 13  4  1  0
 14  5  2  0
 15  2  1  0
 16 18  1  0
 17 19  2  0
 18 10  2  0
 19 10  1  0
 20 13  1  0
 21 20  2  0
 22  7  2  0
 23  8  2  0
 24 20  1  0
 25 22  1  0
 26 23  1  0
  7  8  1  0
  9 17  1  0
 25 26  2  0
M  CHG  2   5   1  11  -1
M  END
>  <ID>  (1067) 


>  <MOLENAME>  (1067) 
ACENOCOUMAROL

>  <therap>  (1067) 
anticoagulant

>  <ref>  (1067) 
Drug Metab Dispos 8:1284 (2000);  Ned Tijdschr Geneeskd.151:1945 (2007) 

>  <cas#>  (1067) 
152-72-7

>  <source>  (1067) 
synthetic

>  <status>  (1067) 
NF-XIV, INN, BAN

>  <tradename>  (1067) 
SINTROM

>  <SMILES>  (1067) 
CC(=O)CC(c1ccc([N+](=O)[O-])cc1)c1c(O)c2ccccc2oc1=O

>  <standardized_failed>  (1067) 
False

$$$$

     RDKit          2D

 29 29  0  0  0  0  0  0  0  0999 V2000
    3.3542   -3.2750    0.0000 N   0  0  0  0  0  0  0  0  0  0  0  0
    2.5292   -3.2750    0.0000 C   0  0  0  0  0  0  0  0  0  0  0  0
    5.0000   -3.2792    0.0000 N   0  0  0  0  0  0  0  0  0  0  0  0
    8.2875   -4.7042    0.0000 C   0  0  0  0  0  0  0  0  0  0  0  0
    2.1167   -2.5542    0.0000 C   0  0  0  0  0  0  0  0  0  0  0  0
    3.7625   -2.5542    0.0000 C   0  0  0  0  0  0  0  0  0  0  0  0
    3.7625   -3.9875    0.0000 C   0  0  0  0  0  0  0  0  0  0  0  0
    8.7000   -3.9875    0.0000 O   0  0  0  0  0  0  0  0  0  0  0  0
    2.1167   -3.9875    0.0000 C   0  0  0  0  0  0  0  0  0  0  0  0
    1.2917   -2.5625    0.0000 C   0  0  0  0  0  0  0  0  0  0  0  0
    2.5292   -1.8417    0.0000 C   0  0  0  0  0  0  0  0  0  0  0  0
    4.5917   -2.5625    0.0000 C   0  0  0  0  0  0  0  0  0  0  0  0
    4.5792   -3.9917    0.0000 C   0  0  0  0  0  0  0  0  0  0  0  0
    1.2917   -1.1292    0.0000 C   0  0  0  0  0  0  0  0  0  0  0  0
    8.7000   -5.4167    0.0000 O   0  0  0  0  0  0  0  0  0  0  0  0
    0.8792   -1.8500    0.0000 C   0  0  0  0  0  0  0  0  0  0  0  0
    2.1167   -1.1292    0.0000 C   0  0  0  0  0  0  0  0  0  0  0  0
    0.8792   -0.4167    0.0000 Cl  0  0  0  0  0  0  0  0  0  0  0  0
    5.8667   -1.8042    0.0000 Cl  0  0  0  0  0  0  0  0  0  0  0  0
    5.9625   -2.5542    0.0000 Cl  0  0  0  0  0  0  0  0  0  0  0  0
    5.8167   -3.2792    0.0000 C   0  0  0  0  0  0  0  0  0  0  0  0
    7.4667   -4.7042    0.0000 C   0  0  0  0  0  0  0  0  0  0  0  0
    7.0542   -3.9917    0.0000 O   0  0  0  0  0  0  0  0  0  0  0  0
    1.2917   -3.9792    0.0000 C   0  0  0  0  0  0  0  0  0  0  0  0
    2.5292   -4.6917    0.0000 C   0  0  0  0  0  0  0  0  0  0  0  0
    6.2292   -3.9917    0.0000 C   0  0  0  0  0  0  0  0  0  0  0  0
    0.8792   -4.7000    0.0000 C   0  0  0  0  0  0  0  0  0  0  0  0
    2.1167   -5.4125    0.0000 C   0  0  0  0  0  0  0  0  0  0  0  0
    1.2917   -5.4125    0.0000 C   0  0  0  0  0  0  0  0  0  0  0  0
  2  1  1  0
  3 13  1  0
  4 22  1  0
  5  2  1  0
  6  1  1  0
  7  1  1  0
  8  4  2  0
  9  2  1  0
 10  5  2  0
 11  5  1  0
 12  6  1  0
 13  7  1  0
 14 17  1  0
 15  4  1  0
 16 10  1  0
 17 11  2  0
 18 14  1  0
 21  3  1  0
 22 23  1  0
 23 26  1  0
 24  9  2  0
 25  9  1  0
 26 21  1  0
 27 24  1  0
 28 25  2  0
 29 28  1  0
  3 12  1  0
 16 14  2  0
 29 27  2  0
M  END
>  <ID>  (1068) 


>  <MOLENAME>  (1068) 
CETIRIZINE HYDROCHLORIDE

>  <therap>  (1068) 
H1 antihistamine

>  <ref>  (1068) 
Allergy 56:50, 339 (2001); Expert Opin Pharmacother 5:125 (2004)

>  <cas#>  (1068) 
83881-52-1

>  <source>  (1068) 
synthetic

>  <status>  (1068) 
USAN, INN, BAN

>  <tradename>  (1068) 
ZYRTEC

>  <SMILES>  (1068) 
O=C(O)COCCN1CCN(C(c2ccccc2)c2ccc(Cl)cc2)CC1

>  <standardized_failed>  (1068) 
False

$$$$

     RDKit          2D

  9  9  0  0  0  0  0  0  0  0999 V2000
    1.4917   -2.6500    0.0000 C   0  0  0  0  0  0  0  0  0  0  0  0
    3.5542   -3.3542    0.0000 O   0  0  0  0  0  0  0  0  0  0  0  0
    2.7292   -3.3542    0.0000 C   0  0  0  0  0  0  0  0  0  0  0  0
    2.3167   -2.6417    0.0000 C   0  0  0  0  0  0  0  0  0  0  0  0
    1.0792   -1.9417    0.0000 C   0  0  0  0  0  0  0  0  0  0  0  0
    1.0792   -3.3625    0.0000 C   0  0  0  0  0  0  0  0  0  0  0  0
    0.2667   -3.3667    0.0000 C   0  0  0  0  0  0  0  0  0  0  0  0
    0.2542   -1.9417    0.0000 C   0  0  0  0  0  0  0  0  0  0  0  0
   -0.1500   -2.6625    0.0000 C   0  0  0  0  0  0  0  0  0  0  0  0
  2  3  1  0
  3  4  1  0
  4  1  1  0
  5  1  2  0
  6  1  1  0
  7  6  2  0
  8  5  1  0
  9  7  1  0
  8  9  2  0
M  END
>  <ID>  (1069) 


>  <MOLENAME>  (1069) 
PHENYLETHYL ALCOHOL

>  <therap>  (1069) 
antimicrobial

>  <ref>  (1069) 
Food Cosmet Toxicol 2:327 (1964); J Pharm Pharmacol 21:681 (1969); 24:145 (1972)

>  <cas#>  (1069) 
60-12-8

>  <source>  (1069) 
synthetic

>  <status>  (1069) 
USP, BAN

>  <tradename>  (1069) 
nan

>  <SMILES>  (1069) 
OCCc1ccccc1

>  <standardized_failed>  (1069) 
False

$$$$

     RDKit          2D

 30 32  0  0  0  0  0  0  0  0999 V2000
    3.9083   -2.8417    0.0000 C   0  0  0  0  0  0  0  0  0  0  0  0
    3.8250   -3.6667    0.0000 C   0  0  0  0  0  0  0  0  0  0  0  0
    4.7167   -2.6708    0.0000 N   0  0  0  0  0  0  0  0  0  0  0  0
    4.5792   -3.9958    0.0000 C   0  0  0  0  0  0  0  0  0  0  0  0
    5.1292   -3.3833    0.0000 C   0  0  0  0  0  0  0  0  0  0  0  0
    3.1125   -4.0833    0.0000 C   0  0  0  0  0  0  0  0  0  0  0  0
    5.7125   -5.8625    0.0000 N   0  0  0  0  0  0  0  0  0  0  0  0
    3.2958   -2.2917    0.0000 O   0  0  0  0  0  0  0  0  0  0  0  0
    4.7542   -4.8042    0.0000 C   0  0  0  0  0  0  0  0  0  0  0  0
    2.3958   -3.6708    0.0000 C   0  0  0  0  0  0  0  0  0  0  0  0
    3.1125   -4.9083    0.0000 C   0  0  0  0  0  0  0  0  0  0  0  0
    6.0583   -7.4708    0.0000 O   0  0  0  0  0  0  0  0  0  0  0  0
    5.5375   -5.0542    0.0000 C   0  0  0  0  0  0  0  0  0  0  0  0
    5.0500   -1.9167    0.0000 C   0  0  0  0  0  0  0  0  0  0  0  0
    6.8042   -4.6167    0.0000 Cl  0  0  0  0  0  0  0  0  0  0  0  0
    6.4958   -6.1083    0.0000 C   0  0  0  0  0  0  0  0  0  0  0  0
    5.1000   -6.4125    0.0000 C   0  0  0  0  0  0  0  0  0  0  0  0
    5.2708   -7.2167    0.0000 C   0  0  0  0  0  0  0  0  0  0  0  0
    6.6708   -6.9167    0.0000 C   0  0  0  0  0  0  0  0  0  0  0  0
    3.8250   -5.3125    0.0000 C   0  0  0  0  0  0  0  0  0  0  0  0
    2.3958   -2.8417    0.0000 C   0  0  0  0  0  0  0  0  0  0  0  0
    1.6792   -4.0833    0.0000 C   0  0  0  0  0  0  0  0  0  0  0  0
    2.4000   -5.3208    0.0000 C   0  0  0  0  0  0  0  0  0  0  0  0
    5.8708   -1.8292    0.0000 C   0  0  0  0  0  0  0  0  0  0  0  0
    1.6792   -2.4292    0.0000 C   0  0  0  0  0  0  0  0  0  0  0  0
    2.4000   -6.1417    0.0000 C   0  0  0  0  0  0  0  0  0  0  0  0
    3.8333   -6.1375    0.0000 C   0  0  0  0  0  0  0  0  0  0  0  0
    0.9667   -3.6708    0.0000 C   0  0  0  0  0  0  0  0  0  0  0  0
    0.9667   -2.8417    0.0000 C   0  0  0  0  0  0  0  0  0  0  0  0
    3.1167   -6.5542    0.0000 C   0  0  0  0  0  0  0  0  0  0  0  0
  2  1  1  0
  3  1  1  0
  4  2  1  0
  5  3  1  0
  6  2  1  0
  7 13  1  0
  8  1  2  0
  9  4  1  0
 10  6  1  0
 11  6  1  0
 12 19  1  0
 13  9  1  0
 14  3  1  0
 16  7  1  0
 17  7  1  0
 18 17  1  0
 19 16  1  0
 20 11  2  0
 21 10  2  0
 22 10  1  0
 23 11  1  0
 24 14  1  0
 25 21  1  0
 26 23  2  0
 27 20  1  0
 28 22  2  0
 29 25  2  0
 30 26  1  0
  5  4  1  0
 27 30  2  0
 28 29  1  0
 12 18  1  0
M  END
>  <ID>  (1070) 


>  <MOLENAME>  (1070) 
DOXAPRAM HYDROCHLORIDE

>  <therap>  (1070) 
respiratory stimulant

>  <ref>  (1070) 
J Med Chem 7:302 (1964); Toxicol Appl Pharmacol 18:185 (1971)

>  <cas#>  (1070) 
7081-53-0

>  <source>  (1070) 
synthetic; AHR-619

>  <status>  (1070) 
USP, INN, BAN, JAN

>  <tradename>  (1070) 
DOPRAM

>  <SMILES>  (1070) 
CCN1CC(CCN2CCOCC2)C(C(c2ccccc2)c2ccccc2)C1=O

>  <standardized_failed>  (1070) 
False

$$$$

     RDKit          2D

181190  0  0  0  0  0  0  0  0999 V2000
   11.4667   -2.7750    0.0000 C   0  0  0  0  0  0  0  0  0  0  0  0
   11.4667   -3.5750    0.0000 C   0  0  0  0  0  0  0  0  0  0  0  0
    0.5375  -11.6750    0.0000 C   0  0  0  0  0  0  0  0  0  0  0  0
   -0.4333   -2.3792    0.0000 N   0  0  0  0  0  0  0  0  0  0  0  0
    2.9833   -7.3958    0.0000 N   0  0  0  0  0  0  0  0  0  0  0  0
    5.8667   -2.7750    0.0000 N   0  0  0  0  0  0  0  0  0  0  0  0
   10.7667   -2.3792    0.0000 C   0  0  0  0  0  0  0  0  0  0  0  0
   -0.9417  -10.9625    0.0000 C   0  0  0  0  0  0  0  0  0  0  0  0
   12.1708   -3.9708    0.0000 O   0  0  0  0  0  0  0  0  0  0  0  0
   10.0667   -2.7750    0.0000 N   0  0  0  0  0  0  0  0  0  0  0  0
    3.7667   -2.3792    0.0000 N   0  0  0  0  0  0  0  0  0  0  0  0
    4.4458   -5.9042    0.0000 N   0  0  0  0  0  0  0  0  0  0  0  0
    1.6667   -2.7750    0.0000 N   0  0  0  0  0  0  0  0  0  0  0  0
    4.4667   -2.7750    0.0000 C   0  0  0  0  0  0  0  0  0  0  0  0
    3.7417   -6.2958    0.0000 C   0  0  0  0  0  0  0  0  0  0  0  0
    1.2208  -11.2125    0.0000 C   0  0  0  0  0  0  0  0  0  0  0  0
    3.7333   -7.0917    0.0000 C   0  0  0  0  0  0  0  0  0  0  0  0
    5.1667   -2.3792    0.0000 C   0  0  0  0  0  0  0  0  0  0  0  0
   12.8667   -5.9667    0.0000 N   0  0  0  0  0  0  0  0  0  0  0  0
   -1.1333   -2.7750    0.0000 C   0  0  0  0  0  0  0  0  0  0  0  0
    0.9542   -6.7208    0.0000 N   0  0  0  0  0  0  0  0  0  0  0  0
   -1.1208   -3.6167    0.0000 C   0  0  0  0  0  0  0  0  0  0  0  0
    0.2667   -2.7750    0.0000 C   0  0  0  0  0  0  0  0  0  0  0  0
    2.3417   -6.9083    0.0000 C   0  0  0  0  0  0  0  0  0  0  0  0
    2.3667   -2.3792    0.0000 C   0  0  0  0  0  0  0  0  0  0  0  0
   -1.6250  -11.4208    0.0000 C   0  0  0  0  0  0  0  0  0  0  0  0
   12.1667   -4.7708    0.0000 C   0  0  0  0  0  0  0  0  0  0  0  0
    8.6667   -2.7750    0.0000 C   0  0  0  0  0  0  0  0  0  0  0  0
    0.5958  -12.5000    0.0000 C   0  0  0  0  0  0  0  0  0  0  0  0
   -2.1500   -4.3042    0.0000 N   0  0  0  0  0  0  0  0  0  0  0  0
   -2.3667  -11.0583    0.0000 C   0  0  0  0  0  0  0  0  0  0  0  0
   11.9833   -2.1000    0.0000 N   0  0  0  0  0  0  0  0  0  0  0  0
    7.9667   -2.3792    0.0000 N   0  0  0  0  0  0  0  0  0  0  0  0
   -0.2042  -11.3167    0.0000 O   0  0  0  0  0  0  0  0  0  0  0  0
   -1.0000  -10.1375    0.0000 O   0  0  0  0  0  0  0  0  0  0  0  0
    1.9625  -11.5792    0.0000 O   0  0  0  0  0  0  0  0  0  0  0  0
   10.7625   -6.3542    0.0000 N   0  0  0  0  0  0  0  0  0  0  0  0
   -0.3333   -5.7458    0.0000 N   0  0  0  0  0  0  0  0  0  0  0  0
    6.5667   -2.3792    0.0000 C   0  0  0  0  0  0  0  0  0  0  0  0
   12.8708   -5.1667    0.0000 C   0  0  0  0  0  0  0  0  0  0  0  0
   12.1667   -6.3625    0.0000 C   0  0  0  0  0  0  0  0  0  0  0  0
    0.2000   -7.0250    0.0000 C   0  0  0  0  0  0  0  0  0  0  0  0
   -0.9708   -5.2583    0.0000 C   0  0  0  0  0  0  0  0  0  0  0  0
   10.0625   -5.9500    0.0000 C   0  0  0  0  0  0  0  0  0  0  0  0
    0.9667   -2.3792    0.0000 C   0  0  0  0  0  0  0  0  0  0  0  0
    3.0667   -2.7750    0.0000 C   0  0  0  0  0  0  0  0  0  0  0  0
    1.5917   -7.2083    0.0000 C   0  0  0  0  0  0  0  0  0  0  0  0
    9.3667   -2.3792    0.0000 C   0  0  0  0  0  0  0  0  0  0  0  0
    1.3375  -12.8625    0.0000 C   0  0  0  0  0  0  0  0  0  0  0  0
   -2.4250  -10.2375    0.0000 C   0  0  0  0  0  0  0  0  0  0  0  0
   12.6833   -2.4958    0.0000 C   0  0  0  0  0  0  0  0  0  0  0  0
    5.1458   -6.3083    0.0000 C   0  0  0  0  0  0  0  0  0  0  0  0
    2.0208  -12.4000    0.0000 C   0  0  0  0  0  0  0  0  0  0  0  0
   -1.7417   -9.7792    0.0000 C   0  0  0  0  0  0  0  0  0  0  0  0
    8.6583   -5.9375    0.0000 N   0  0  0  0  0  0  0  0  0  0  0  0
    5.8500   -5.9125    0.0000 C   0  0  0  0  0  0  0  0  0  0  0  0
   -1.7542   -5.2500    0.0000 C   0  0  0  0  0  0  0  0  0  0  0  0
    9.3583   -6.3375    0.0000 C   0  0  0  0  0  0  0  0  0  0  0  0
   10.7667   -3.9667    0.0000 C   0  0  0  0  0  0  0  0  0  0  0  0
    6.5500   -6.3208    0.0000 N   0  0  0  0  0  0  0  0  0  0  0  0
   13.3875   -2.1000    0.0000 C   0  0  0  0  0  0  0  0  0  0  0  0
   13.5708   -4.7708    0.0000 C   0  0  0  0  0  0  0  0  0  0  0  0
   13.3875   -1.3000    0.0000 C   0  0  0  0  0  0  0  0  0  0  0  0
    7.2667   -2.7750    0.0000 C   0  0  0  0  0  0  0  0  0  0  0  0
   11.4667   -5.9667    0.0000 C   0  0  0  0  0  0  0  0  0  0  0  0
   -0.4375   -6.5375    0.0000 C   0  0  0  0  0  0  0  0  0  0  0  0
    7.9542   -6.3292    0.0000 C   0  0  0  0  0  0  0  0  0  0  0  0
   14.0875   -2.4917    0.0000 N   0  0  0  0  0  0  0  0  0  0  0  0
    1.1625  -10.3917    0.0000 O   0  0  0  0  0  0  0  0  0  0  0  0
   12.6750   -0.8833    0.0000 C   0  0  0  0  0  0  0  0  0  0  0  0
   14.7958   -2.0750    0.0000 C   0  0  0  0  0  0  0  0  0  0  0  0
   14.2708   -5.1708    0.0000 C   0  0  0  0  0  0  0  0  0  0  0  0
   14.9750   -4.7750    0.0000 C   0  0  0  0  0  0  0  0  0  0  0  0
    0.9667   -1.5792    0.0000 C   0  0  0  0  0  0  0  0  0  0  0  0
    1.4875   -8.0000    0.0000 C   0  0  0  0  0  0  0  0  0  0  0  0
    3.0667   -3.2125    0.0000 C   0  0  0  0  0  0  0  0  0  0  0  0
    9.3667   -1.5792    0.0000 C   0  0  0  0  0  0  0  0  0  0  0  0
    5.5875   -6.9292    0.0000 C   0  0  0  0  0  0  0  0  0  0  0  0
   10.7667   -1.5792    0.0000 O   0  0  0  0  0  0  0  0  0  0  0  0
    4.4667   -3.5750    0.0000 O   0  0  0  0  0  0  0  0  0  0  0  0
    3.0417   -5.8917    0.0000 O   0  0  0  0  0  0  0  0  0  0  0  0
   -0.3917   -4.0042    0.0000 O   0  0  0  0  0  0  0  0  0  0  0  0
    2.3417   -6.1500    0.0000 O   0  0  0  0  0  0  0  0  0  0  0  0
    0.2667   -3.5750    0.0000 O   0  0  0  0  0  0  0  0  0  0  0  0
    2.3667   -1.5792    0.0000 O   0  0  0  0  0  0  0  0  0  0  0  0
   11.4667   -5.1667    0.0000 O   0  0  0  0  0  0  0  0  0  0  0  0
    8.6667   -3.5750    0.0000 O   0  0  0  0  0  0  0  0  0  0  0  0
   12.1667   -7.1625    0.0000 O   0  0  0  0  0  0  0  0  0  0  0  0
    0.0958   -7.8125    0.0000 O   0  0  0  0  0  0  0  0  0  0  0  0
    6.5667   -1.5792    0.0000 O   0  0  0  0  0  0  0  0  0  0  0  0
   -0.8625   -4.4667    0.0000 O   0  0  0  0  0  0  0  0  0  0  0  0
   10.0708   -5.1500    0.0000 O   0  0  0  0  0  0  0  0  0  0  0  0
   14.9750   -3.9750    0.0000 C   0  0  0  0  0  0  0  0  0  0  0  0
   -2.3333   -5.8125    0.0000 C   0  0  0  0  0  0  0  0  0  0  0  0
   12.6833   -3.2958    0.0000 O   0  0  0  0  0  0  0  0  0  0  0  0
    5.8583   -5.1167    0.0000 O   0  0  0  0  0  0  0  0  0  0  0  0
   15.5125   -2.4792    0.0000 C   0  0  0  0  0  0  0  0  0  0  0  0
    9.3542   -7.1375    0.0000 C   0  0  0  0  0  0  0  0  0  0  0  0
   10.7625   -4.7667    0.0000 O   0  0  0  0  0  0  0  0  0  0  0  0
   13.5708   -3.9750    0.0000 C   0  0  0  0  0  0  0  0  0  0  0  0
    5.1667   -1.5792    0.0000 C   0  0  0  0  0  0  0  0  0  0  0  0
    4.2167   -7.5667    0.0000 C   0  0  0  0  0  0  0  0  0  0  0  0
   -1.8333   -2.3792    0.0000 C   0  0  0  0  0  0  0  0  0  0  0  0
    7.2542   -5.9250    0.0000 C   0  0  0  0  0  0  0  0  0  0  0  0
    7.9458   -7.1250    0.0000 O   0  0  0  0  0  0  0  0  0  0  0  0
   16.2250   -2.0583    0.0000 C   0  0  0  0  0  0  0  0  0  0  0  0
   16.2167   -1.2333    0.0000 C   0  0  0  0  0  0  0  0  0  0  0  0
   11.9583   -1.2917    0.0000 O   0  0  0  0  0  0  0  0  0  0  0  0
   14.7875   -1.2500    0.0000 O   0  0  0  0  0  0  0  0  0  0  0  0
   14.2667   -3.5792    0.0000 C   0  0  0  0  0  0  0  0  0  0  0  0
   -1.5667  -12.2417    0.0000 O   0  0  0  0  0  0  0  0  0  0  0  0
   -0.0875  -12.9625    0.0000 O   0  0  0  0  0  0  0  0  0  0  0  0
   -3.0500  -11.5208    0.0000 O   0  0  0  0  0  0  0  0  0  0  0  0
   10.0750   -1.1833    0.0000 C   0  0  0  0  0  0  0  0  0  0  0  0
    8.6708   -1.1833    0.0000 C   0  0  0  0  0  0  0  0  0  0  0  0
    5.2500   -7.6250    0.0000 C   0  0  0  0  0  0  0  0  0  0  0  0
    0.7375   -8.2958    0.0000 C   0  0  0  0  0  0  0  0  0  0  0  0
    2.1250   -8.4833    0.0000 C   0  0  0  0  0  0  0  0  0  0  0  0
    6.3542   -6.8708    0.0000 C   0  0  0  0  0  0  0  0  0  0  0  0
    0.2708   -1.1833    0.0000 C   0  0  0  0  0  0  0  0  0  0  0  0
    2.3625   -3.6042    0.0000 C   0  0  0  0  0  0  0  0  0  0  0  0
    3.7667   -3.6042    0.0000 C   0  0  0  0  0  0  0  0  0  0  0  0
    1.6750   -1.1833    0.0000 C   0  0  0  0  0  0  0  0  0  0  0  0
   16.9250   -0.8125    0.0000 C   0  0  0  0  0  0  0  0  0  0  0  0
   10.0625   -3.5708    0.0000 N   0  0  0  0  0  0  0  0  0  0  0  0
    1.2708   -9.5750    0.0000 C   0  0  0  0  0  0  0  0  0  0  0  0
    1.3917  -13.6833    0.0000 O   0  0  0  0  0  0  0  0  0  0  0  0
   -3.1667   -9.8792    0.0000 O   0  0  0  0  0  0  0  0  0  0  0  0
   12.6792   -0.0583    0.0000 N   0  0  0  0  0  0  0  0  0  0  0  0
   15.6750   -5.1708    0.0000 Cl  0  0  0  0  0  0  0  0  0  0  0  0
    6.4625   -8.1875    0.0000 C   0  0  0  0  0  0  0  0  0  0  0  0
    0.9708    0.0167    0.0000 C   0  0  0  0  0  0  0  0  0  0  0  0
    9.3708    0.0167    0.0000 C   0  0  0  0  0  0  0  0  0  0  0  0
    3.0667   -4.8000    0.0000 C   0  0  0  0  0  0  0  0  0  0  0  0
    2.0208   -9.2708    0.0000 C   0  0  0  0  0  0  0  0  0  0  0  0
    0.6250   -9.0875    0.0000 C   0  0  0  0  0  0  0  0  0  0  0  0
   -3.1167   -5.6000    0.0000 C   0  0  0  0  0  0  0  0  0  0  0  0
    2.3625   -4.4042    0.0000 C   0  0  0  0  0  0  0  0  0  0  0  0
    1.6750   -0.3833    0.0000 C   0  0  0  0  0  0  0  0  0  0  0  0
   10.0750   -0.3833    0.0000 C   0  0  0  0  0  0  0  0  0  0  0  0
    5.6958   -8.2500    0.0000 C   0  0  0  0  0  0  0  0  0  0  0  0
    3.7708   -4.4000    0.0000 C   0  0  0  0  0  0  0  0  0  0  0  0
    6.7958   -7.4917    0.0000 C   0  0  0  0  0  0  0  0  0  0  0  0
    8.6667   -0.3875    0.0000 C   0  0  0  0  0  0  0  0  0  0  0  0
    0.2667   -0.3875    0.0000 C   0  0  0  0  0  0  0  0  0  0  0  0
    2.7625  -12.7583    0.0000 C   0  0  0  0  0  0  0  0  0  0  0  0
   -1.8000   -8.9583    0.0000 C   0  0  0  0  0  0  0  0  0  0  0  0
   15.6750   -3.5792    0.0000 O   0  0  0  0  0  0  0  0  0  0  0  0
    5.2625   -4.5542    0.0000 N   0  0  0  0  0  0  0  0  0  0  0  0
   -2.7500   -7.3042    0.0000 N   0  0  0  0  0  0  0  0  0  0  0  0
   -1.8333   -1.5792    0.0000 O   0  0  0  0  0  0  0  0  0  0  0  0
    4.4667   -1.1792    0.0000 O   0  0  0  0  0  0  0  0  0  0  0  0
    4.0250   -8.2583    0.0000 O   0  0  0  0  0  0  0  0  0  0  0  0
    3.0708   -5.3333    0.0000 O   0  0  0  0  0  0  0  0  0  0  0  0
    0.9708    0.8125    0.0000 O   0  0  0  0  0  0  0  0  0  0  0  0
    9.3708    0.8125    0.0000 O   0  0  0  0  0  0  0  0  0  0  0  0
    6.9250   -8.8417    0.0000 O   0  0  0  0  0  0  0  0  0  0  0  0
    2.6708  -13.5792    0.0000 O   0  0  0  0  0  0  0  0  0  0  0  0
   -2.5917   -8.7333    0.0000 O   0  0  0  0  0  0  0  0  0  0  0  0
    7.2667   -3.5750    0.0000 C   0  0  0  0  0  0  0  0  0  0  0  0
   -1.1875   -6.8375    0.0000 C   0  0  0  0  0  0  0  0  0  0  0  0
   10.0500   -7.5333    0.0000 C   0  0  0  0  0  0  0  0  0  0  0  0
   12.1667   -5.5542    0.0000 C   0  0  0  0  0  0  0  0  0  0  0  0
   16.9167    0.0125    0.0000 C   0  0  0  0  0  0  0  0  0  0  0  0
   -2.1250   -7.9000    0.0000 C   0  0  0  0  0  0  0  0  0  0  0  0
    5.7833   -3.8292    0.0000 C   0  0  0  0  0  0  0  0  0  0  0  0
   -2.5333   -2.7750    0.0000 C   0  0  0  0  0  0  0  0  0  0  0  0
    5.0000   -7.3583    0.0000 C   0  0  0  0  0  0  0  0  0  0  0  0
    5.8708   -1.1792    0.0000 C   0  0  0  0  0  0  0  0  0  0  0  0
   16.2000    0.4167    0.0000 C   0  0  0  0  0  0  0  0  0  0  0  0
   -3.6833   -6.1625    0.0000 C   0  0  0  0  0  0  0  0  0  0  0  0
   -3.3167   -4.8333    0.0000 C   0  0  0  0  0  0  0  0  0  0  0  0
   -1.2958   -7.6292    0.0000 C   0  0  0  0  0  0  0  0  0  0  0  0
    6.5667   -3.9667    0.0000 C   0  0  0  0  0  0  0  0  0  0  0  0
   10.7542   -7.1417    0.0000 C   0  0  0  0  0  0  0  0  0  0  0  0
   10.0458   -8.3333    0.0000 C   0  0  0  0  0  0  0  0  0  0  0  0
   15.4875   -0.0042    0.0000 C   0  0  0  0  0  0  0  0  0  0  0  0
   16.1917    1.2417    0.0000 C   0  0  0  0  0  0  0  0  0  0  0  0
   -4.0958   -4.6208    0.0000 C   0  0  0  0  0  0  0  0  0  0  0  0
   -4.4667   -5.9583    0.0000 C   0  0  0  0  0  0  0  0  0  0  0  0
   -4.6750   -5.1833    0.0000 C   0  0  0  0  0  0  0  0  0  0  0  0
  2  1  1  0
  3 16  1  0
  4 23  1  0
  5 17  1  0
  6 39  1  0
  7  1  1  0
  8 34  1  1
  9  2  1  0
 10  7  1  0
 11 14  1  0
 52 12  1  6
 13 25  1  0
 14 18  1  0
 15 12  1  0
 16 69  1  6
 17 15  1  0
 18  6  1  1
 40 19  1  6
 20  4  1  6
 47 21  1  6
 22 20  1  0
 23 45  1  0
 24  5  1  0
 25 46  1  0
 26  8  1  0
 27  9  1  0
 28 48  1  0
 29  3  1  0
 30 22  1  0
 31 26  1  0
  1 32  1  1
 33 28  1  0
  3 34  1  6
 35  8  1  0
 36 16  1  0
 37 65  1  0
 38 43  1  0
 39 64  1  0
 40 27  1  0
 41 19  1  0
 42 21  1  0
 43 57  1  0
 44 37  1  0
 45 13  1  1
 46 11  1  1
 47 24  1  0
 48 10  1  1
 49 29  1  0
 50 31  1  0
 51 32  1  0
 52 56  1  0
 53 36  1  0
 54 35  1  0
 55 58  1  0
 56 60  1  0
 57 30  1  0
 58 44  1  0
  2 59  1  6
 60104  1  0
 61 51  1  0
 40 62  1  0
 61 63  1  6
 64 33  1  0
 65 41  1  0
 66 38  1  0
 67 55  1  0
 61 68  1  0
 69126  1  0
 70 63  1  0
 71 68  1  0
 72 62  2  0
 73 72  1  0
 45 74  1  0
 47 75  1  0
 46 76  1  0
 48 77  1  0
 52 78  1  0
 79  7  2  0
 80 14  2  0
 81 15  2  0
 82 22  2  0
 83 24  2  0
 84 23  2  0
 85 25  2  0
 86 27  2  0
 87 28  2  0
 88 41  2  0
 89 42  2  0
 90 39  2  0
 91 43  2  0
 92 44  2  0
 93 73  2  0
 57 94  1  6
 95 51  2  0
 96 56  2  0
 97 71  1  0
 58 98  1  6
 99 59  2  0
100 62  1  0
101 18  1  0
102 17  1  0
103 20  1  0
104 67  1  0
105 67  2  0
106 97  2  0
107106  1  0
108 70  2  0
109 71  2  0
110100  2  0
 26111  1  6
 29112  1  1
 31113  1  1
114 77  2  0
115 77  1  0
116 78  2  0
117 75  2  0
118 75  1  0
119 78  1  0
120 74  2  0
121 76  2  0
122 76  1  0
123 74  1  0
124107  2  0
125 59  1  0
126135  1  0
 49127  1  6
 50128  1  6
129 70  1  0
130 73  1  0
131143  1  0
132145  2  0
133144  1  0
134142  1  0
135118  2  0
136117  1  0
137 94  1  0
138121  1  0
139123  2  0
140114  1  0
141116  1  0
142122  2  0
143119  2  0
144115  2  0
145120  1  0
 53146  1  6
 54147  1  1
148 93  1  0
149166  1  0
150165  1  0
151103  1  0
101152  1  0
153102  1  0
154134  1  0
155132  1  0
156133  1  0
157131  1  0
158146  1  0
159147  1  0
 64160  1  6
 66161  1  1
162 98  1  0
 65163  1  6
164124  1  0
165173  1  0
166174  1  0
103167  1  6
168102  1  0
101169  1  1
170164  1  0
171137  2  0
172137  1  0
173161  1  0
174160  1  0
175162  1  0
176162  1  0
177170  1  0
178170  1  0
179172  2  0
180171  1  0
181180  2  0
133140  2  0
110 93  1  0
134138  2  0
132139  1  0
131141  2  0
 66 42  1  0
126136  2  0
181179  1  0
 53 49  1  0
 54 50  1  0
M  END
>  <ID>  (1071) 


>  <MOLENAME>  (1071) 
RAMOPLANIN [A2 shown; 2mM]

>  <therap>  (1071) 
antibacterial

>  <ref>  (1071) 
Clin Infect Dis 33:1476 (2001)Chem Rev 105:449 (2005); Ann Pharmacother 39:863 (2005)

>  <cas#>  (1071) 
76168-82-6

>  <source>  (1071) 
Actinoplanes spp; MDL-62198

>  <status>  (1071) 
USAN, INN

>  <tradename>  (1071) 
nan

>  <SMILES>  (1071) 
CC(C)C/C=C/C=C\C(=O)N[C@@H](CC(N)=O)C(=O)N[C@@H]1C(=O)N[C@H](c2ccc(O)cc2)C(=O)N[C@H](CCCN)C(=O)N[C@H]([C@H](C)O)C(=O)N[C@@H](c2ccc(O)cc2)C(=O)N[C@H](c2ccc(O)cc2)C(=O)N[C@@H]([C@H](C)O)C(=O)N[C@@H](Cc2ccccc2)C(=O)N[C@H](CCCN)C(=O)N[C@@H](c2ccc(O[C@@H]3O[C@H](CO)[C@H](O)[C@@H](O)[C@@H]3O[C@@H]3O[C@H](CO)[C@@H](O)[C@H](O)[C@H]3O)cc2)C(=O)NC(C(C)O)C(=O)N[C@@H](c2ccc(O)cc2)C(=O)NCC(=O)N[C@@H](CC(C)C)C(=O)N[C@H](C)C(=O)N[C@@H](c2cc(Cl)c(O)cc2)C(=O)O[C@@H]1C(N)=O

>  <standardized_failed>  (1071) 
False

$$$$

     RDKit          2D

 47 50  0  0  0  0  0  0  0  0999 V2000
    6.8792   -5.0000    0.0000 C   0  0  0  0  0  0  0  0  0  0  0  0
    5.4417   -4.9917    0.0000 C   0  0  0  0  0  0  0  0  0  0  0  0
    6.8667   -5.8292    0.0000 C   0  0  0  0  0  0  0  0  0  0  0  0
    8.3125   -5.0167    0.0000 C   0  0  0  0  0  0  0  0  0  0  0  0
    6.1542   -4.5917    0.0000 C   0  0  0  0  0  0  0  0  0  0  0  0
    7.6000   -4.5917    0.0000 C   0  0  0  0  0  0  0  0  0  0  0  0
    8.3042   -5.8500    0.0000 C   0  0  0  0  0  0  0  0  0  0  0  0
    5.4375   -5.8250    0.0000 C   0  0  0  0  0  0  0  0  0  0  0  0
    4.7250   -4.5875    0.0000 C   0  0  0  0  0  0  0  0  0  0  0  0
    4.7250   -6.2375    0.0000 C   0  0  0  0  0  0  0  0  0  0  0  0
    4.0167   -4.9917    0.0000 C   0  0  0  0  0  0  0  0  0  0  0  0
   13.6750   -6.5042    0.0000 S   0  0  0  0  0  0  0  0  0  0  0  0
    4.0125   -5.8167    0.0000 C   0  0  0  0  0  0  0  0  0  0  0  0
    7.5792   -6.2542    0.0000 C   0  0  0  0  0  0  0  0  0  0  0  0
    6.1500   -6.2417    0.0000 C   0  0  0  0  0  0  0  0  0  0  0  0
   11.9000   -6.1625    0.0000 C   0  0  0  0  0  0  0  0  0  0  0  0
    9.0292   -4.6125    0.0000 C   0  0  0  0  0  0  0  0  0  0  0  0
   13.0792   -6.1625    0.0000 C   0  0  0  0  0  0  0  0  0  0  0  0
   12.4917   -6.5042    0.0000 C   0  0  0  0  0  0  0  0  0  0  0  0
   11.3042   -6.5042    0.0000 C   0  0  0  0  0  0  0  0  0  0  0  0
    3.2917   -4.5875    0.0000 C   0  0  0  0  0  0  0  0  0  0  0  0
    3.2917   -6.2375    0.0000 C   0  0  0  0  0  0  0  0  0  0  0  0
    7.5750   -7.0792    0.0000 N   0  0  0  0  0  0  0  0  0  0  0  0
   11.9000   -5.4792    0.0000 C   0  0  0  0  0  0  0  0  0  0  0  0
   13.3292   -7.1000    0.0000 O   0  0  0  0  0  0  0  0  0  0  0  0
   14.0125   -5.9167    0.0000 O   0  0  0  0  0  0  0  0  0  0  0  0
    7.6042   -3.7667    0.0000 O   0  0  0  0  0  0  0  0  0  0  0  0
    4.7250   -3.7625    0.0000 O   0  0  0  0  0  0  0  0  0  0  0  0
    4.7167   -7.0625    0.0000 C   0  0  0  0  0  0  0  0  0  0  0  0
    6.8750   -4.1750    0.0000 O   0  0  0  0  0  0  0  0  0  0  0  0
   14.2625   -6.8542    0.0000 O   0  0  0  0  0  0  0  0  0  0  0  0
    9.0417   -3.7875    0.0000 O   0  0  0  0  0  0  0  0  0  0  0  0
    6.1542   -3.7667    0.0000 O   0  0  0  0  0  0  0  0  0  0  0  0
   11.3042   -7.1875    0.0000 O   0  0  0  0  0  0  0  0  0  0  0  0
    9.0167   -6.2667    0.0000 O   0  0  0  0  0  0  0  0  0  0  0  0
   13.0792   -5.4792    0.0000 C   0  0  0  0  0  0  0  0  0  0  0  0
    2.5917   -4.9917    0.0000 C   0  0  0  0  0  0  0  0  0  0  0  0
   12.4917   -5.1375    0.0000 C   0  0  0  0  0  0  0  0  0  0  0  0
    2.5917   -5.8167    0.0000 C   0  0  0  0  0  0  0  0  0  0  0  0
    6.1417   -7.0667    0.0000 O   0  0  0  0  0  0  0  0  0  0  0  0
    9.7417   -5.0292    0.0000 N   0  0  0  0  0  0  0  0  0  0  0  0
   10.7167   -6.1625    0.0000 O   0  0  0  0  0  0  0  0  0  0  0  0
    3.2917   -7.0625    0.0000 Cl  0  0  0  0  0  0  0  0  0  0  0  0
    3.2917   -3.7625    0.0000 O   0  0  0  0  0  0  0  0  0  0  0  0
   11.3125   -5.1417    0.0000 O   0  0  0  0  0  0  0  0  0  0  0  0
    8.2792   -7.5042    0.0000 C   0  0  0  0  0  0  0  0  0  0  0  0
    6.8542   -7.4917    0.0000 C   0  0  0  0  0  0  0  0  0  0  0  0
  2  5  2  0
  3  1  1  0
  4  6  1  0
  5  1  1  0
  6  1  1  0
  7  4  2  0
  8  2  1  0
  9  2  1  0
  8 10  1  6
 11  9  1  0
 13 11  2  0
  3 14  1  6
  3 15  1  0
 16 19  2  0
 17  4  1  0
 18 12  1  0
 19 18  1  0
 20 16  1  0
 21 11  1  0
 22 13  1  0
 14 23  1  1
 24 38  2  0
 25 12  2  0
 26 12  2  0
 27  6  2  0
 28  9  2  0
 29 10  2  0
  1 30  1  1
 31 12  1  0
 32 17  2  0
 33  5  1  0
 34 20  2  0
 35  7  1  0
 36 18  2  0
 37 21  2  0
 38 36  1  0
 39 22  2  0
 15 40  1  1
 41 17  1  0
 42 20  1  0
 43 22  1  0
 44 21  1  0
 45 24  1  0
 46 23  1  0
 47 23  1  0
 14  7  1  0
  8 15  1  0
 13 10  1  0
 37 39  1  0
 24 16  1  0
M  END
>  <ID>  (1072) 


>  <MOLENAME>  (1072) 
MECLOCYCLINE SULFOSALICYLATE

>  <therap>  (1072) 
antibacterial

>  <ref>  (1072) 
Chemotherapy (1973), 19(2), 109-14; J. Am. Chem. Soc. (1963), 85(24), 3943-53; J. Am. Chem. Soc. (1961), 83, 2773-5

>  <cas#>  (1072) 
73816-42-9, 2013-58-3 [meclocycline]

>  <source>  (1072) 
semisynthetic; GS-2989, NSC-78502

>  <status>  (1072) 
USAN, INN, BAN

>  <tradename>  (1072) 
MECLAN

>  <SMILES>  (1072) 
C=C1c2c(C(=O)C3=C(O)[C@]4(O)C(=O)C(C(N)=O)=C(O)[C@@H](N(C)C)[C@@H]4[C@@H](O)[C@H]13)c(O)ccc2Cl.O=C(O)c1cc(S(=O)(=O)O)ccc1O

>  <standardized_failed>  (1072) 
False

$$$$

     RDKit          2D

 36 39  0  0  0  0  0  0  0  0999 V2000
    8.9292   -3.4750    0.0000 C   0  0  0  0  0  0  0  0  0  0  0  0
    9.5417   -2.9167    0.0000 C   0  0  0  0  0  0  0  0  0  0  0  0
    8.1417   -3.2167    0.0000 C   0  0  0  0  0  0  0  0  0  0  0  0
    6.7542   -3.5167    0.0000 C   0  0  0  0  0  0  0  0  0  0  0  0
    7.5417   -3.7750    0.0000 C   0  0  0  0  0  0  0  0  0  0  0  0
    5.1917   -3.0125    0.0000 N   0  0  0  0  0  0  0  0  0  0  0  0
    9.1042   -4.2792    0.0000 C   0  0  0  0  0  0  0  0  0  0  0  0
    6.5792   -2.7125    0.0000 C   0  0  0  0  0  0  0  0  0  0  0  0
    6.1417   -4.0667    0.0000 C   0  0  0  0  0  0  0  0  0  0  0  0
    2.7667   -2.0417    0.0000 C   0  0  0  0  0  0  0  0  0  0  0  0
    2.7667   -2.8667    0.0000 C   0  0  0  0  0  0  0  0  0  0  0  0
    2.0500   -1.6292    0.0000 C   0  0  0  0  0  0  0  0  0  0  0  0
    7.7042   -4.5792    0.0000 C   0  0  0  0  0  0  0  0  0  0  0  0
   10.3292   -3.1667    0.0000 F   0  0  0  0  0  0  0  0  0  0  0  0
    9.3667   -2.1125    0.0000 F   0  0  0  0  0  0  0  0  0  0  0  0
   10.1250   -2.3292    0.0000 F   0  0  0  0  0  0  0  0  0  0  0  0
    8.4917   -4.8375    0.0000 C   0  0  0  0  0  0  0  0  0  0  0  0
    5.3625   -3.8167    0.0000 C   0  0  0  0  0  0  0  0  0  0  0  0
    5.7917   -2.4542    0.0000 C   0  0  0  0  0  0  0  0  0  0  0  0
    1.3292   -2.0417    0.0000 C   0  0  0  0  0  0  0  0  0  0  0  0
    2.0500   -0.8000    0.0000 C   0  0  0  0  0  0  0  0  0  0  0  0
    2.0542   -3.2792    0.0000 C   0  0  0  0  0  0  0  0  0  0  0  0
    3.4792   -3.2750    0.0000 C   0  0  0  0  0  0  0  0  0  0  0  0
    6.7542   -4.3417    0.0000 O   0  0  0  0  0  0  0  0  0  0  0  0
    0.6167   -0.8000    0.0000 C   0  0  0  0  0  0  0  0  0  0  0  0
    2.7667   -4.5042    0.0000 C   0  0  0  0  0  0  0  0  0  0  0  0
    9.8917   -4.5375    0.0000 Cl  0  0  0  0  0  0  0  0  0  0  0  0
    3.4875   -4.0917    0.0000 C   0  0  0  0  0  0  0  0  0  0  0  0
    0.6167   -1.6292    0.0000 C   0  0  0  0  0  0  0  0  0  0  0  0
    2.0542   -4.1000    0.0000 C   0  0  0  0  0  0  0  0  0  0  0  0
    1.3292   -0.3875    0.0000 C   0  0  0  0  0  0  0  0  0  0  0  0
   -0.0958   -0.3917    0.0000 F   0  0  0  0  0  0  0  0  0  0  0  0
    2.7667   -5.3375    0.0000 F   0  0  0  0  0  0  0  0  0  0  0  0
    4.4042   -2.7625    0.0000 C   0  0  0  0  0  0  0  0  0  0  0  0
    4.2292   -1.9542    0.0000 C   0  0  0  0  0  0  0  0  0  0  0  0
    3.4792   -1.6250    0.0000 C   0  0  0  0  0  0  0  0  0  0  0  0
  2  1  1  0
  3  1  2  0
  4  5  1  0
  5  3  1  0
  6 18  1  0
  7  1  1  0
  8  4  1  0
  9  4  1  0
 10 36  1  0
 11 10  1  0
 12 10  1  0
 13 17  1  0
 14  2  1  0
 15  2  1  0
 16  2  1  0
 17  7  2  0
 18  9  1  0
 19  8  1  0
 20 12  2  0
 21 12  1  0
 22 11  2  0
 23 11  1  0
 24  4  1  0
 25 31  1  0
 26 28  1  0
 27  7  1  0
 28 23  2  0
 29 20  1  0
 30 22  1  0
 31 21  2  0
 32 25  1  0
 33 26  1  0
 34  6  1  0
 35 34  1  0
 36 35  1  0
 13  5  2  0
  6 19  1  0
 29 25  2  0
 26 30  2  0
M  END
>  <ID>  (1073) 


>  <MOLENAME>  (1073) 
PENFLURIDOL

>  <therap>  (1073) 
antipsychotic

>  <ref>  (1073) 
Eur J Pharmacol 11:139 (1970); Br Med J 2:710 (1971); J Clin Pharmacol 17:252 (1977) 

>  <cas#>  (1073) 
26864-56-2

>  <source>  (1073) 
synthetic; McN-JR-16341, R-16341

>  <status>  (1073) 
USAN, INN, BAN

>  <tradename>  (1073) 
SEMAP

>  <SMILES>  (1073) 
OC1(c2ccc(Cl)c(C(F)(F)F)c2)CCN(CCCC(c2ccc(F)cc2)c2ccc(F)cc2)CC1

>  <standardized_failed>  (1073) 
False

$$$$

     RDKit          2D

 25 24  0  0  0  0  0  0  0  0999 V2000
    5.8500   -4.7167    0.0000 C   0  0  0  0  0  0  0  0  0  0  0  0
    5.2000   -5.0917    0.0000 C   0  0  0  0  0  0  0  0  0  0  0  0
    6.5042   -5.0917    0.0000 C   0  0  0  0  0  0  0  0  0  0  0  0
    5.8500   -2.4667    0.0000 C   0  0  0  0  0  0  0  0  0  0  0  0
    5.2000   -2.8417    0.0000 N   0  0  0  0  0  0  0  0  0  0  0  0
    5.8500   -3.9667    0.0000 C   0  0  0  0  0  0  0  0  0  0  0  0
    5.2000   -3.5917    0.0000 C   0  0  0  0  0  0  0  0  0  0  0  0
    5.2000   -5.8417    0.0000 O   0  0  0  0  0  0  0  0  0  0  0  0
    6.5000   -2.8417    0.0000 O   0  0  0  0  0  0  0  0  0  0  0  0
    7.1500   -4.7167    0.0000 O   0  0  0  0  0  0  0  0  0  0  0  0
    6.5000   -8.0917    0.0000 N   0  0  0  0  0  0  0  0  0  0  0  0
    4.5542   -4.7167    0.0000 C   0  0  0  0  0  0  0  0  0  0  0  0
    5.8500   -6.9667    0.0000 C   0  0  0  0  0  0  0  0  0  0  0  0
    5.8500   -6.2167    0.0000 C   0  0  0  0  0  0  0  0  0  0  0  0
    6.5000   -7.3417    0.0000 C   0  0  0  0  0  0  0  0  0  0  0  0
    4.5542   -3.9667    0.0000 C   0  0  0  0  0  0  0  0  0  0  0  0
    7.8875   -7.0917    0.0000 Cl  0  0  0  0  0  0  0  0  0  0  0  0
    5.2000   -7.3417    0.0000 O   0  0  0  0  0  0  0  0  0  0  0  0
    7.1417   -8.4667    0.0000 C   0  0  0  0  0  0  0  0  0  0  0  0
    5.8500   -1.7167    0.0000 C   0  0  0  0  0  0  0  0  0  0  0  0
    6.5042   -5.8417    0.0000 C   0  0  0  0  0  0  0  0  0  0  0  0
    6.4917   -1.3417    0.0000 C   0  0  0  0  0  0  0  0  0  0  0  0
    7.1417   -9.2167    0.0000 C   0  0  0  0  0  0  0  0  0  0  0  0
    7.7875   -8.0917    0.0000 C   0  0  0  0  0  0  0  0  0  0  0  0
    6.4917   -0.5917    0.0000 C   0  0  0  0  0  0  0  0  0  0  0  0
  2  1  2  0
  3  1  1  0
  4  5  1  0
  5  7  1  0
  6  1  1  0
  7  6  2  0
  8  2  1  0
  9  4  2  0
 10  3  2  0
 11 15  1  0
 12  2  1  0
 13 14  1  0
 14  8  1  0
 15 13  1  0
 16  7  1  0
 18 13  1  0
 19 11  1  0
 20  4  1  0
 21  3  1  0
 22 20  1  0
 23 19  1  0
 24 19  1  0
 25 22  1  0
 12 16  2  0
M  END
>  <ID>  (1074) 


>  <MOLENAME>  (1074) 
ACEBUTOLOL HYDROCHLORIDE

>  <therap>  (1074) 
antihypertensive, antianginal, antiarrhythmic

>  <ref>  (1074) 
Drugs 29:531 (1985); Am Heart J 109:1211 (1985)

>  <cas#>  (1074) 
34381-68-5, 37517-30-9 [acebutolol]

>  <source>  (1074) 
synthetic

>  <status>  (1074) 
USAN, INN, BAN

>  <tradename>  (1074) 
SECTRAL

>  <SMILES>  (1074) 
CCCC(=O)Nc1cc(C(C)=O)c(OCC(O)CNC(C)C)cc1

>  <standardized_failed>  (1074) 
False

$$$$

     RDKit          2D

 65 72  0  0  0  0  0  0  0  0999 V2000
    3.5625   -2.0917    0.0000 C   0  0  0  0  0  0  0  0  0  0  0  0
    6.3625   -4.1167    0.0000 C   0  0  0  0  0  0  0  0  0  0  0  0
    7.2250   -5.2625    0.0000 C   0  0  0  0  0  0  0  0  0  0  0  0
    2.7875   -1.6667    0.0000 C   0  0  0  0  0  0  0  0  0  0  0  0
    6.4625   -4.9417    0.0000 C   0  0  0  0  0  0  0  0  0  0  0  0
    5.7125   -5.2917    0.0000 N   0  0  0  0  0  0  0  0  0  0  0  0
    7.7875   -3.9417    0.0000 C   0  0  0  0  0  0  0  0  0  0  0  0
    7.0792   -3.5292    0.0000 C   0  0  0  0  0  0  0  0  0  0  0  0
    5.1500   -4.6792    0.0000 C   0  0  0  0  0  0  0  0  0  0  0  0
    7.8875   -4.7667    0.0000 C   0  0  0  0  0  0  0  0  0  0  0  0
    5.5500   -3.9542    0.0000 C   0  0  0  0  0  0  0  0  0  0  0  0
    4.3000   -3.2667    0.0000 C   0  0  0  0  0  0  0  0  0  0  0  0
    2.3042   -1.0000    0.0000 C   0  0  0  0  0  0  0  0  0  0  0  0
    2.3042   -2.3250    0.0000 N   0  0  0  0  0  0  0  0  0  0  0  0
    9.1417   -0.6917    0.0000 S   0  0  0  0  0  0  0  0  0  0  0  0
    4.3167   -4.6917    0.0000 C   0  0  0  0  0  0  0  0  0  0  0  0
    5.1292   -3.2500    0.0000 C   0  0  0  0  0  0  0  0  0  0  0  0
    6.9417   -2.7792    0.0000 N   0  0  0  0  0  0  0  0  0  0  0  0
    3.3500   -2.6542    0.0000 C   0  0  0  0  0  0  0  0  0  0  0  0
    1.5167   -1.2542    0.0000 C   0  0  0  0  0  0  0  0  0  0  0  0
    7.8042   -5.8417    0.0000 C   0  0  0  0  0  0  0  0  0  0  0  0
    3.9000   -3.9792    0.0000 C   0  0  0  0  0  0  0  0  0  0  0  0
    1.5167   -2.0792    0.0000 C   0  0  0  0  0  0  0  0  0  0  0  0
    3.7250    0.2875    0.0000 N   0  0  0  0  0  0  0  0  0  0  0  0
    5.8417   -3.4792    0.0000 C   0  0  0  0  0  0  0  0  0  0  0  0
    4.3042   -1.7292    0.0000 C   0  0  0  0  0  0  0  0  0  0  0  0
    5.5625   -6.1042    0.0000 C   0  0  0  0  0  0  0  0  0  0  0  0
    8.6792   -4.9792    0.0000 O   0  0  0  0  0  0  0  0  0  0  0  0
    8.5042   -3.5375    0.0000 C   0  0  0  0  0  0  0  0  0  0  0  0
    2.3375   -0.3875    0.0000 C   0  0  0  0  0  0  0  0  0  0  0  0
    5.1500    0.2833    0.0000 C   0  0  0  0  0  0  0  0  0  0  0  0
    4.6500   -0.9750    0.0000 C   0  0  0  0  0  0  0  0  0  0  0  0
    9.4875   -4.8292    0.0000 C   0  0  0  0  0  0  0  0  0  0  0  0
    8.1750   -0.6917    0.0000 O   0  0  0  0  0  0  0  0  0  0  0  0
    9.1375    0.1333    0.0000 O   0  0  0  0  0  0  0  0  0  0  0  0
    6.0875   -2.6917    0.0000 C   0  0  0  0  0  0  0  0  0  0  0  0
    6.8042   -5.9750    0.0000 O   0  0  0  0  0  0  0  0  0  0  0  0
    8.5125   -2.7125    0.0000 C   0  0  0  0  0  0  0  0  0  0  0  0
    4.4375    0.6958    0.0000 C   0  0  0  0  0  0  0  0  0  0  0  0
    3.7167   -0.5375    0.0000 C   0  0  0  0  0  0  0  0  0  0  0  0
    2.7250   -2.6875    0.0000 O   0  0  0  0  0  0  0  0  0  0  0  0
    7.5875   -6.6417    0.0000 O   0  0  0  0  0  0  0  0  0  0  0  0
    2.9125    0.2083    0.0000 C   0  0  0  0  0  0  0  0  0  0  0  0
    9.1417   -1.5167    0.0000 O   0  0  0  0  0  0  0  0  0  0  0  0
    9.9542   -0.6917    0.0000 O   0  0  0  0  0  0  0  0  0  0  0  0
    4.7792   -6.3792    0.0000 O   0  0  0  0  0  0  0  0  0  0  0  0
    9.5917   -4.1792    0.0000 O   0  0  0  0  0  0  0  0  0  0  0  0
    5.3250   -0.5042    0.0000 C   0  0  0  0  0  0  0  0  0  0  0  0
    8.5042   -4.1542    0.0000 C   0  0  0  0  0  0  0  0  0  0  0  0
    7.8000   -2.2917    0.0000 C   0  0  0  0  0  0  0  0  0  0  0  0
    3.5125   -3.2167    0.0000 O   0  0  0  0  0  0  0  0  0  0  0  0
    8.6000   -5.6292    0.0000 O   0  0  0  0  0  0  0  0  0  0  0  0
    3.0750   -3.9917    0.0000 O   0  0  0  0  0  0  0  0  0  0  0  0
    5.6875    0.9125    0.0000 O   0  0  0  0  0  0  0  0  0  0  0  0
    0.8125   -0.8417    0.0000 C   0  0  0  0  0  0  0  0  0  0  0  0
    0.8125   -2.4917    0.0000 C   0  0  0  0  0  0  0  0  0  0  0  0
    5.8625   -0.1375    0.0000 C   0  0  0  0  0  0  0  0  0  0  0  0
   10.1542   -5.3042    0.0000 C   0  0  0  0  0  0  0  0  0  0  0  0
    9.1875   -6.2125    0.0000 C   0  0  0  0  0  0  0  0  0  0  0  0
    2.6542   -4.7042    0.0000 C   0  0  0  0  0  0  0  0  0  0  0  0
    2.6375   -3.5917    0.0000 C   0  0  0  0  0  0  0  0  0  0  0  0
    9.0667   -3.7417    0.0000 C   0  0  0  0  0  0  0  0  0  0  0  0
    6.5750    0.2750    0.0000 C   0  0  0  0  0  0  0  0  0  0  0  0
    0.0875   -1.2542    0.0000 C   0  0  0  0  0  0  0  0  0  0  0  0
    0.0875   -2.0792    0.0000 C   0  0  0  0  0  0  0  0  0  0  0  0
  2 11  1  0
  3  5  1  0
  4  1  1  0
  5  2  1  0
  6  9  1  0
  7  8  1  0
  8  2  1  0
  9 16  2  0
 10  7  1  0
 11 17  2  0
  1 12  1  0
 13  4  2  0
 14  4  1  0
 16 22  1  0
 17 12  1  0
  8 18  1  1
  1 19  1  1
 20 13  1  0
  3 21  1  0
 22 12  2  0
 23 14  1  0
 24 40  1  0
  2 25  1  1
 26  1  1  0
 27  6  1  0
 10 28  1  1
 29  7  1  0
 30 13  1  0
 31 48  1  0
 32 26  1  0
 33 28  1  0
 34 15  2  0
 35 15  2  0
 36 25  1  0
  3 37  1  1
 38 50  1  0
 39 31  1  0
 40 32  1  0
 41 19  2  0
 42 21  2  0
 43 30  1  0
 44 15  1  0
 45 15  1  0
 46 27  2  0
 47 33  2  0
 48 32  1  0
  7 49  1  6
 50 18  1  0
 51 19  1  0
 52 21  1  0
 53 22  1  0
 31 54  1  1
 55 20  2  0
 56 23  2  0
 31 57  1  0
 58 33  1  0
 59 52  1  0
 60 53  1  0
 61 51  1  0
 62 49  1  0
 63 57  1  0
 64 55  1  0
 65 56  1  0
 23 20  1  0
  9 11  1  0
 43 24  1  0
 65 64  2  0
 39 24  1  0
  5  6  1  6
 36 18  1  0
 10  3  1  0
 38 29  2  0
M  END
>  <ID>  (1075) 


>  <MOLENAME>  (1075) 
VINCRISTINE SULFATE

>  <therap>  (1075) 
antineoplastic

>  <ref>  (1075) 
Int Pharmacodyn Ther 157:299 (1965)

>  <cas#>  (1075) 
2068-78-2

>  <source>  (1075) 
Vinca rosea; 37231, NSC-67574

>  <status>  (1075) 
USP, INN, BAN, JAN

>  <tradename>  (1075) 
ONCOVIN

>  <SMILES>  (1075) 
CC[C@]1(O)CC2CN(CCc3c([nH]c4ccccc34)[C@@](C(=O)OC)(c3c(OC)cc4c(c3)[C@@]35CCN6CC=C[C@@](CC)([C@@H](OC(C)=O)[C@](O)(C(=O)OC)[C@@H]3N4C=O)[C@H]65)C2)C1

>  <standardized_failed>  (1075) 
False

$$$$

     RDKit          2D

 15 14  0  0  0  0  0  0  0  0999 V2000
    3.1667   -2.1542    0.0000 C   0  0  0  0  0  0  0  0  0  0  0  0
    2.4542   -1.7417    0.0000 C   0  0  0  0  0  0  0  0  0  0  0  0
    1.7417   -2.1542    0.0000 C   0  0  0  0  0  0  0  0  0  0  0  0
    3.8792   -1.7375    0.0000 C   0  0  0  0  0  0  0  0  0  0  0  0
    1.7417   -2.9792    0.0000 C   0  0  0  0  0  0  0  0  0  0  0  0
    3.1667   -2.9792    0.0000 C   0  0  0  0  0  0  0  0  0  0  0  0
    2.4542   -3.3917    0.0000 C   0  0  0  0  0  0  0  0  0  0  0  0
    4.6000   -2.1417    0.0000 C   0  0  0  0  0  0  0  0  0  0  0  0
    1.0292   -1.7417    0.0000 O   0  0  0  0  0  0  0  0  0  0  0  0
    4.6000   -2.9667    0.0000 N   0  0  0  0  0  0  0  0  0  0  0  0
    3.8792   -0.9125    0.0000 O   0  0  0  0  0  0  0  0  0  0  0  0
    1.0250   -3.3917    0.0000 O   0  0  0  0  0  0  0  0  0  0  0  0
    5.3292   -4.7417    0.0000 Cl  0  0  0  0  0  0  0  0  0  0  0  0
    5.3125   -1.7292    0.0000 C   0  0  0  0  0  0  0  0  0  0  0  0
    6.0292   -2.1417    0.0000 C   0  0  0  0  0  0  0  0  0  0  0  0
  2  1  2  0
  3  2  1  0
  4  1  1  0
  5  7  1  0
  6  1  1  0
  7  6  2  0
  8  4  1  0
  9  3  1  0
 10  8  1  0
 11  4  1  0
 12  5  1  0
 14  8  1  0
 15 14  1  0
  3  5  2  0
M  END
>  <ID>  (1076) 


>  <MOLENAME>  (1076) 
ETHYLNOREPINEPHRINE HYDROCHLORIDE

>  <therap>  (1076) 
bronchodilator

>  <ref>  (1076) 
Biochem. Pharmacol. (1978), 27(10), 1445-54; J. Pharmacol. Exp. Ther. (1976), 197(1), 66-78; Ann. Allergy (1968), 26(9), 493-8

>  <cas#>  (1076) 
3198-07-0, 536-24-3 [ethylnorepinephrine]

>  <source>  (1076) 
synthetic

>  <status>  (1076) 
USP-XXII, INN

>  <tradename>  (1076) 
nan

>  <SMILES>  (1076) 
CCC(N)C(O)c1cc(O)c(O)cc1

>  <standardized_failed>  (1076) 
False

$$$$

     RDKit          2D

 22 25  0  0  0  0  0  0  0  0999 V2000
    8.0750   -3.6667    0.0000 C   0  0  0  0  0  0  0  0  0  0  0  0
    7.5750   -3.1792    0.0000 C   0  0  0  0  0  0  0  0  0  0  0  0
    8.8667   -3.5292    0.0000 C   0  0  0  0  0  0  0  0  0  0  0  0
    7.5750   -2.3500    0.0000 C   0  0  0  0  0  0  0  0  0  0  0  0
    7.8250   -4.4542    0.0000 C   0  0  0  0  0  0  0  0  0  0  0  0
    6.8542   -3.5917    0.0000 C   0  0  0  0  0  0  0  0  0  0  0  0
    9.3250   -4.2375    0.0000 N   0  0  0  0  0  0  0  0  0  0  0  0
    9.2542   -2.7750    0.0000 C   0  0  0  0  0  0  0  0  0  0  0  0
    6.8542   -1.9375    0.0000 C   0  0  0  0  0  0  0  0  0  0  0  0
    7.3292   -6.0250    0.0000 N   0  0  0  0  0  0  0  0  0  0  0  0
    8.0875   -1.8500    0.0000 C   0  0  0  0  0  0  0  0  0  0  0  0
    8.8875   -2.0000    0.0000 C   0  0  0  0  0  0  0  0  0  0  0  0
    6.1417   -2.3542    0.0000 C   0  0  0  0  0  0  0  0  0  0  0  0
    6.1417   -3.1792    0.0000 C   0  0  0  0  0  0  0  0  0  0  0  0
    5.4292   -1.9417    0.0000 Cl  0  0  0  0  0  0  0  0  0  0  0  0
    8.3875   -5.0625    0.0000 C   0  0  0  0  0  0  0  0  0  0  0  0
    7.0167   -4.6375    0.0000 C   0  0  0  0  0  0  0  0  0  0  0  0
    8.1375   -5.8500    0.0000 C   0  0  0  0  0  0  0  0  0  0  0  0
    6.7750   -5.4167    0.0000 C   0  0  0  0  0  0  0  0  0  0  0  0
   10.1667   -4.1917    0.0000 C   0  0  0  0  0  0  0  0  0  0  0  0
   10.0917   -2.7375    0.0000 C   0  0  0  0  0  0  0  0  0  0  0  0
   10.5500   -3.4375    0.0000 C   0  0  0  0  0  0  0  0  0  0  0  0
  2  1  1  0
  3  1  1  0
  4  2  1  0
  5  1  2  0
  6  2  2  0
  7  3  2  0
  8  3  1  0
  9  4  2  0
 10 19  1  0
 11  4  1  0
 12  8  1  0
 13 14  2  0
 14  6  1  0
 15 13  1  0
 16  5  1  0
 17  5  1  0
 18 16  1  0
 19 17  1  0
 20  7  1  0
 21  8  2  0
 22 21  1  0
 10 18  1  0
 12 11  1  0
 20 22  2  0
  9 13  1  0
M  END
>  <ID>  (1077) 


>  <MOLENAME>  (1077) 
DESLORATIDINE

>  <therap>  (1077) 
H1-antihistamine

>  <ref>  (1077) 
Drugs (2003), 63(19), 2051-2077; Ann. Pharmacother. (2003), 37(2), 237-246; Allergy (1995), 50(3), 200-3

>  <cas#>  (1077) 
100643-71-8

>  <source>  (1077) 
synthetic; Sch-34117

>  <status>  (1077) 
USAN

>  <tradename>  (1077) 
CLARINEX

>  <SMILES>  (1077) 
Clc1ccc2C(=C3CCNCC3)c3ncccc3CCc2c1

>  <standardized_failed>  (1077) 
False

$$$$

     RDKit          2D

 30 32  0  0  0  0  0  0  0  0999 V2000
    4.9417   -2.4167    0.0000 N   0  0  0  0  0  0  0  0  0  0  0  0
    5.6542   -2.0042    0.0000 C   0  0  0  0  0  0  0  0  0  0  0  0
    4.9417   -3.2417    0.0000 C   0  0  0  0  0  0  0  0  0  0  0  0
    4.2292   -2.0042    0.0000 C   0  0  0  0  0  0  0  0  0  0  0  0
    4.2250   -3.6542    0.0000 C   0  0  0  0  0  0  0  0  0  0  0  0
    7.0792   -2.0042    0.0000 N   0  0  0  0  0  0  0  0  0  0  0  0
    5.3500   -3.9542    0.0000 C   0  0  0  0  0  0  0  0  0  0  0  0
    6.3667   -2.4167    0.0000 C   0  0  0  0  0  0  0  0  0  0  0  0
    7.7875   -3.2417    0.0000 C   0  0  0  0  0  0  0  0  0  0  0  0
    3.5167   -2.4167    0.0000 C   0  0  0  0  0  0  0  0  0  0  0  0
    3.5125   -3.2417    0.0000 C   0  0  0  0  0  0  0  0  0  0  0  0
    7.7917   -2.4167    0.0000 C   0  0  0  0  0  0  0  0  0  0  0  0
    5.6500   -1.1792    0.0000 O   0  0  0  0  0  0  0  0  0  0  0  0
    4.9292   -4.6667    0.0000 O   0  0  0  0  0  0  0  0  0  0  0  0
    7.2000   -3.8167    0.0000 O   0  0  0  0  0  0  0  0  0  0  0  0
    8.5042   -2.0042    0.0000 C   0  0  0  0  0  0  0  0  0  0  0  0
    6.1417   -4.1667    0.0000 O   0  0  0  0  0  0  0  0  0  0  0  0
    8.5000   -3.6542    0.0000 O   0  0  0  0  0  0  0  0  0  0  0  0
    9.2167   -2.4042    0.0000 C   0  0  0  0  0  0  0  0  0  0  0  0
    9.9292   -1.9917    0.0000 C   0  0  0  0  0  0  0  0  0  0  0  0
    6.3625   -3.2417    0.0000 C   0  0  0  0  0  0  0  0  0  0  0  0
    2.8042   -3.6542    0.0000 C   0  0  0  0  0  0  0  0  0  0  0  0
    2.8042   -2.0042    0.0000 C   0  0  0  0  0  0  0  0  0  0  0  0
   10.6417   -2.4042    0.0000 C   0  0  0  0  0  0  0  0  0  0  0  0
    9.9250   -1.1667    0.0000 C   0  0  0  0  0  0  0  0  0  0  0  0
    2.0917   -2.4167    0.0000 C   0  0  0  0  0  0  0  0  0  0  0  0
    2.0917   -3.2417    0.0000 C   0  0  0  0  0  0  0  0  0  0  0  0
   10.6417   -0.7542    0.0000 C   0  0  0  0  0  0  0  0  0  0  0  0
   11.3542   -1.9917    0.0000 C   0  0  0  0  0  0  0  0  0  0  0  0
   11.3542   -1.1667    0.0000 C   0  0  0  0  0  0  0  0  0  0  0  0
  2  1  1  0
  3  1  1  0
  4  1  1  0
  5  3  1  0
  6  8  1  0
  3  7  1  6
  8  2  1  0
 12  9  1  0
 10  4  1  0
 11 10  2  0
 12  6  1  0
 13  2  2  0
 14  7  2  0
 15  9  2  0
 12 16  1  1
 17  7  1  0
 18  9  1  0
 19 16  1  0
 20 19  1  0
  8 21  1  1
 22 11  1  0
 23 10  1  0
 24 20  2  0
 25 20  1  0
 26 23  2  0
 27 26  1  0
 28 25  2  0
 29 24  1  0
 30 28  1  0
 11  5  1  0
 22 27  2  0
 29 30  2  0
M  END
>  <ID>  (1078) 


>  <MOLENAME>  (1078) 
QUINAPRILAT

>  <therap>  (1078) 
antihypertensive, ACE inhiibitor

>  <ref>  (1078) 
Hypertension 30:912 (1997); J Thorac Cardiovasc Surg 124:352 (2002)

>  <cas#>  (1078) 
85441-60-7

>  <source>  (1078) 
synthetic; CI-928

>  <status>  (1078) 
USAN, INN

>  <tradename>  (1078) 
nan

>  <SMILES>  (1078) 
C[C@H](N[C@@H](CCc1ccccc1)C(=O)O)C(=O)N1Cc2c(cccc2)C[C@H]1C(=O)O

>  <standardized_failed>  (1078) 
False

$$$$

     RDKit          2D

 34 37  0  0  0  0  0  0  0  0999 V2000
    3.0417   -2.8042    0.0000 C   0  0  0  0  0  0  0  0  0  0  0  0
    5.1917   -1.5875    0.0000 C   0  0  0  0  0  0  0  0  0  0  0  0
    3.7542   -2.3958    0.0000 C   0  0  0  0  0  0  0  0  0  0  0  0
    5.9750   -1.3417    0.0000 C   0  0  0  0  0  0  0  0  0  0  0  0
    3.0375   -3.6292    0.0000 C   0  0  0  0  0  0  0  0  0  0  0  0
    5.1833   -2.4125    0.0000 C   0  0  0  0  0  0  0  0  0  0  0  0
    4.4625   -2.8167    0.0000 C   0  0  0  0  0  0  0  0  0  0  0  0
    3.7625   -1.5708    0.0000 C   0  0  0  0  0  0  0  0  0  0  0  0
    2.3292   -2.3917    0.0000 C   0  0  0  0  0  0  0  0  0  0  0  0
    4.4833   -1.1667    0.0000 C   0  0  0  0  0  0  0  0  0  0  0  0
    6.4500   -2.0125    0.0000 C   0  0  0  0  0  0  0  0  0  0  0  0
    5.9625   -2.6750    0.0000 C   0  0  0  0  0  0  0  0  0  0  0  0
    6.1875   -0.5417    0.0000 C   0  0  0  0  0  0  0  0  0  0  0  0
    4.4667   -3.6375    0.0000 C   0  0  0  0  0  0  0  0  0  0  0  0
    3.7500   -4.0458    0.0000 C   0  0  0  0  0  0  0  0  0  0  0  0
    2.3292   -4.0417    0.0000 C   0  0  0  0  0  0  0  0  0  0  0  0
    6.9000   -1.5542    0.0000 O   0  0  0  0  0  0  0  0  0  0  0  0
    1.6167   -2.8042    0.0000 C   0  0  0  0  0  0  0  0  0  0  0  0
    1.6167   -3.6292    0.0000 C   0  0  0  0  0  0  0  0  0  0  0  0
    7.7167   -1.0792    0.0000 C   0  0  0  0  0  0  0  0  0  0  0  0
    5.6000    0.0458    0.0000 S   0  0  0  0  0  0  0  0  0  0  0  0
    3.7500   -3.2167    0.0000 F   0  0  0  0  0  0  0  0  0  0  0  0
    6.9833   -0.3250    0.0000 O   0  0  0  0  0  0  0  0  0  0  0  0
    7.7125   -0.3125    0.0000 O   0  0  0  0  0  0  0  0  0  0  0  0
    0.9042   -4.0458    0.0000 O   0  0  0  0  0  0  0  0  0  0  0  0
    5.8125    0.8458    0.0000 C   0  0  0  0  0  0  0  0  0  0  0  0
    3.0375   -1.9792    0.0000 C   0  0  0  0  0  0  0  0  0  0  0  0
    5.1875   -0.7625    0.0000 C   0  0  0  0  0  0  0  0  0  0  0  0
    3.0500   -1.1542    0.0000 O   0  0  0  0  0  0  0  0  0  0  0  0
    3.7417   -4.8667    0.0000 F   0  0  0  0  0  0  0  0  0  0  0  0
    5.2292    1.4292    0.0000 F   0  0  0  0  0  0  0  0  0  0  0  0
    7.1625   -2.4250    0.0000 C   0  0  0  0  0  0  0  0  0  0  0  0
    8.4000   -1.4667    0.0000 C   0  0  0  0  0  0  0  0  0  0  0  0
    9.1208   -1.0583    0.0000 C   0  0  0  0  0  0  0  0  0  0  0  0
  2 10  1  0
  3  1  1  0
  4  2  1  0
  5  1  1  0
  6  7  1  0
  7  3  1  0
  8  3  1  0
  9  1  1  0
 10  8  1  0
 11 12  1  0
 12  6  1  0
  4 13  1  0
 14  7  1  0
 15  5  1  0
 16  5  2  0
  4 17  1  6
 18  9  2  0
 19 16  1  0
 20 17  1  0
 21 13  1  0
 22  3  1  0
 23 13  2  0
 24 20  2  0
 25 19  2  0
 26 21  1  0
  1 27  1  1
  2 28  1  1
  8 29  1  1
 30 15  1  0
 31 26  1  0
 11 32  1  6
 33 20  1  0
 34 33  1  0
 14 15  1  0
  6  2  1  0
 19 18  1  0
  4 11  1  0
M  END
>  <ID>  (1079) 


>  <MOLENAME>  (1079) 
FLUTICASONE PROPIONATE

>  <therap>  (1079) 
antiinflammatory

>  <ref>  (1079) 
Drugs (1997), 53(5), 885-907; J. Med. Chem. (1994), 37(22), 3717-29; Steroids (1994), 59(10), 597-602

>  <cas#>  (1079) 
80474-14-2

>  <source>  (1079) 
synthetic; CCI-18781

>  <status>  (1079) 
USAN, INN, BAN

>  <tradename>  (1079) 
FLUVENT

>  <SMILES>  (1079) 
CCC(=O)O[C@]1(C(=O)SCF)[C@H](C)CC2C3CC(F)C4=CC(=O)C=C[C@]4(C)C3(F)[C@@H](O)C[C@@]21C

>  <standardized_failed>  (1079) 
False

$$$$

     RDKit          2D

  7  5  0  0  0  0  0  0  0  0999 V2000
    5.4167   -2.3750    0.0000 C   0  0  0  0  0  0  0  0  0  0  0  0
    6.1292   -1.9625    0.0000 O   0  0  0  0  0  0  0  0  0  0  0  0
    5.4167   -3.2000    0.0000 O   0  0  0  0  0  0  0  0  0  0  0  0
    4.7042   -1.9625    0.0000 C   0  0  0  0  0  0  0  0  0  0  0  0
    7.4000   -1.9917    0.0000 Na  0  0  0  0  0 15  0  0  0  0  0  0
    3.9917   -2.3750    0.0000 O   0  0  0  0  0  0  0  0  0  0  0  0
    4.7042   -1.1375    0.0000 C   0  0  0  0  0  0  0  0  0  0  0  0
  2  1  1  0
  3  1  2  0
  4  1  1  0
  6  4  1  0
  7  4  1  0
M  CHG  2   2  -1   5   1
M  END
>  <ID>  (1080) 


>  <MOLENAME>  (1080) 
SODIUM LACTATE

>  <therap>  (1080) 
electrolyte replenisher

>  <ref>  (1080) 
Lett. Appl. Microbiol. (1999), 29(6), 424-8; Ann. N. Y. Acad. Sci. (1997), 821, 444-8; Clin. Physiol. (1996), 16(4), 393-401

>  <cas#>  (1080) 
72-17-3

>  <source>  (1080) 
widespread in nature

>  <status>  (1080) 
USP, JAN

>  <tradename>  (1080) 
nan

>  <SMILES>  (1080) 
CC(O)C(=O)[O-].[Na+]

>  <standardized_failed>  (1080) 
False

$$$$

     RDKit          2D

 15 16  0  0  0  0  0  0  0  0999 V2000
    6.6500   -4.9458    0.0000 N   0  0  0  0  0  0  0  0  0  0  0  0
    7.3625   -5.3583    0.0000 C   0  0  0  0  0  0  0  0  0  0  0  0
    8.0792   -4.9458    0.0000 N   0  0  0  0  0  0  0  0  0  0  0  0
    5.9375   -5.3625    0.0000 C   0  0  0  0  0  0  0  0  0  0  0  0
    6.6500   -4.1167    0.0000 C   0  0  0  0  0  0  0  0  0  0  0  0
    7.3625   -3.7042    0.0000 C   0  0  0  0  0  0  0  0  0  0  0  0
    8.0792   -4.1167    0.0000 C   0  0  0  0  0  0  0  0  0  0  0  0
    5.1833   -5.0250    0.0000 O   0  0  0  0  0  0  0  0  0  0  0  0
    7.3625   -6.1833    0.0000 O   0  0  0  0  0  0  0  0  0  0  0  0
    5.8500   -6.1833    0.0000 C   0  0  0  0  0  0  0  0  0  0  0  0
    8.7917   -3.7000    0.0000 N   0  0  0  0  0  0  0  0  0  0  0  0
    4.6333   -5.6375    0.0000 C   0  0  0  0  0  0  0  0  0  0  0  0
    5.0417   -6.3542    0.0000 C   0  0  0  0  0  0  0  0  0  0  0  0
    3.4750   -4.7958    0.0000 O   0  0  0  0  0  0  0  0  0  0  0  0
    3.8125   -5.5500    0.0000 C   0  0  0  0  0  0  0  0  0  0  0  0
  2  1  1  0
  3  2  1  0
  4  1  1  1
  5  1  1  0
  6  5  2  0
  7  6  1  0
  8  4  1  0
  9  2  2  0
 10  4  1  0
 11  7  1  0
 12  8  1  0
 13 10  1  0
 14 15  1  0
 12 15  1  1
  7  3  2  0
 13 12  1  0
M  END
>  <ID>  (1081) 


>  <MOLENAME>  (1081) 
ZALCITABINE

>  <therap>  (1081) 
antiviral

>  <ref>  (1081) 
Chem Pharm Bull 22:128 (1974); J Med Chem 30:440 (1987); J Biol Chem 262:988 (1987)

>  <cas#>  (1081) 
7481-89-2

>  <source>  (1081) 
synthetic; RO-24-2027

>  <status>  (1081) 
USP, INN, BAN

>  <tradename>  (1081) 
HIVID

>  <SMILES>  (1081) 
Nc1nc(=O)n([C@H]2CC[C@@H](CO)O2)cc1

>  <standardized_failed>  (1081) 
False

$$$$

     RDKit          2D

 62 63  0  0  0  0  0  0  0  0999 V2000
    9.8417   -3.0167    0.0000 C   0  0  0  0  0  0  0  0  0  0  0  0
   -3.3667   -1.5958    0.0000 C   0  0  0  0  0  0  0  0  0  0  0  0
   10.2500   -3.7333    0.0000 S   0  0  0  0  0  0  0  0  0  0  0  0
   -3.7750   -2.3125    0.0000 S   0  0  0  0  0  0  0  0  0  0  0  0
   10.2542   -0.8625    0.0000 S   0  0  0  0  0  0  0  0  0  0  0  0
   -3.7792    0.5583    0.0000 S   0  0  0  0  0  0  0  0  0  0  0  0
   -2.1250   -0.8792    0.0000 C   0  0  0  0  0  0  0  0  0  0  0  0
    8.6000   -2.3000    0.0000 C   0  0  0  0  0  0  0  0  0  0  0  0
    9.0125   -3.0167    0.0000 C   0  0  0  0  0  0  0  0  0  0  0  0
   -2.5375   -1.5958    0.0000 C   0  0  0  0  0  0  0  0  0  0  0  0
    9.8458   -1.5792    0.0000 C   0  0  0  0  0  0  0  0  0  0  0  0
   -3.3708   -0.1542    0.0000 C   0  0  0  0  0  0  0  0  0  0  0  0
   -2.5375   -0.1583    0.0000 C   0  0  0  0  0  0  0  0  0  0  0  0
    9.0125   -1.5792    0.0000 C   0  0  0  0  0  0  0  0  0  0  0  0
   10.2583   -2.2958    0.0000 C   0  0  0  0  0  0  0  0  0  0  0  0
   -3.7833   -0.8750    0.0000 C   0  0  0  0  0  0  0  0  0  0  0  0
    7.7750   -2.3000    0.0000 C   0  0  0  0  0  0  0  0  0  0  0  0
   -1.3000   -0.8792    0.0000 C   0  0  0  0  0  0  0  0  0  0  0  0
    6.5375   -1.5875    0.0000 N   0  0  0  0  0  0  0  0  0  0  0  0
   -0.0583   -0.1667    0.0000 N   0  0  0  0  0  0  0  0  0  0  0  0
    0.3583   -0.8792    0.0000 N   0  0  0  0  0  0  0  0  0  0  0  0
    6.1250   -0.8750    0.0000 N   0  0  0  0  0  0  0  0  0  0  0  0
   -0.8833   -0.1667    0.0000 C   0  0  0  0  0  0  0  0  0  0  0  0
    7.3625   -1.5875    0.0000 C   0  0  0  0  0  0  0  0  0  0  0  0
   -2.1250    0.5625    0.0000 C   0  0  0  0  0  0  0  0  0  0  0  0
    8.6000   -0.8583    0.0000 C   0  0  0  0  0  0  0  0  0  0  0  0
    3.6500   -0.8750    0.0000 C   0  0  0  0  0  0  0  0  0  0  0  0
    2.8292   -0.8750    0.0000 C   0  0  0  0  0  0  0  0  0  0  0  0
   -4.3458   -3.1167    0.0000 O   0  0  0  0  0  0  0  0  0  0  0  0
   10.8167   -4.5417    0.0000 O   0  0  0  0  0  0  0  0  0  0  0  0
   10.6750   -0.1417    0.0000 O   0  0  0  0  0  0  0  0  0  0  0  0
   -4.1958    1.2750    0.0000 O   0  0  0  0  0  0  0  0  0  0  0  0
   -3.3125   -3.0542    0.0000 O   0  0  0  0  0  0  0  0  0  0  0  0
    9.7917   -4.4792    0.0000 O   0  0  0  0  0  0  0  0  0  0  0  0
   11.0542   -3.5167    0.0000 O   0  0  0  0  0  0  0  0  0  0  0  0
   -4.5792   -2.0917    0.0000 O   0  0  0  0  0  0  0  0  0  0  0  0
    4.0625   -1.5917    0.0000 C   0  0  0  0  0  0  0  0  0  0  0  0
    2.4167   -1.5875    0.0000 C   0  0  0  0  0  0  0  0  0  0  0  0
    9.7542   -0.1375    0.0000 O   0  0  0  0  0  0  0  0  0  0  0  0
   -3.2833    1.2833    0.0000 O   0  0  0  0  0  0  0  0  0  0  0  0
   -4.5333    0.4083    0.0000 O   0  0  0  0  0  0  0  0  0  0  0  0
   11.0042   -1.0125    0.0000 O   0  0  0  0  0  0  0  0  0  0  0  0
    5.3000   -0.8750    0.0000 C   0  0  0  0  0  0  0  0  0  0  0  0
    1.1833   -0.8792    0.0000 C   0  0  0  0  0  0  0  0  0  0  0  0
    1.5917   -1.5875    0.0000 C   0  0  0  0  0  0  0  0  0  0  0  0
    4.8833   -1.5917    0.0000 C   0  0  0  0  0  0  0  0  0  0  0  0
    7.7708   -0.8625    0.0000 C   0  0  0  0  0  0  0  0  0  0  0  0
   -1.2958    0.5583    0.0000 C   0  0  0  0  0  0  0  0  0  0  0  0
    8.6000   -3.7292    0.0000 N   0  0  0  0  0  0  0  0  0  0  0  0
   -2.1250   -2.3083    0.0000 N   0  0  0  0  0  0  0  0  0  0  0  0
    4.0583   -0.1625    0.0000 C   0  0  0  0  0  0  0  0  0  0  0  0
    2.4167   -0.1625    0.0000 C   0  0  0  0  0  0  0  0  0  0  0  0
    1.5917   -0.1667    0.0000 C   0  0  0  0  0  0  0  0  0  0  0  0
    4.8833   -0.1583    0.0000 C   0  0  0  0  0  0  0  0  0  0  0  0
   -0.8875   -1.5917    0.0000 O   0  0  0  0  0  0  0  0  0  0  0  0
    7.3625   -3.0125    0.0000 O   0  0  0  0  0  0  0  0  0  0  0  0
   -5.2208    1.3458    0.0000 Na  0  0  0  0  0 15  0  0  0  0  0  0
   -5.5333   -3.2750    0.0000 Na  0  0  0  0  0 15  0  0  0  0  0  0
   12.0250   -0.1250    0.0000 Na  0  0  0  0  0 15  0  0  0  0  0  0
   11.7125   -4.7417    0.0000 Na  0  0  0  0  0 15  0  0  0  0  0  0
    5.2958   -2.3042    0.0000 C   0  0  0  0  0  0  0  0  0  0  0  0
    1.1833   -2.3000    0.0000 C   0  0  0  0  0  0  0  0  0  0  0  0
  2 10  2  0
  3  1  1  0
  4  2  1  0
  5 11  1  0
  6 12  1  0
  7 18  2  0
  8  9  1  0
  9  1  2  0
 10  7  1  0
 11 15  2  0
 12 13  1  0
 13  7  1  0
 14  8  2  0
 15  1  1  0
 16  2  1  0
 17  8  1  0
 18 23  1  0
 19 24  1  0
 20 21  2  0
 21 44  1  0
 22 19  2  0
 23 20  1  0
 24 17  2  0
 25 48  1  0
 26 14  1  0
 27 51  2  0
 28 27  1  0
 29  4  1  0
 30  3  1  0
 31  5  1  0
 32  6  1  0
 33  4  2  0
 34  3  2  0
 35  3  2  0
 36  4  2  0
 37 46  2  0
 38 28  2  0
 39  5  2  0
 40  6  2  0
 41  6  2  0
 42  5  2  0
 43 22  1  0
 44 53  1  0
 45 38  1  0
 46 43  1  0
 47 26  2  0
 48 23  2  0
 49  9  1  0
 50 10  1  0
 51 54  1  0
 52 28  1  0
 53 52  2  0
 54 43  2  0
 55 18  1  0
 56 17  1  0
 61 46  1  0
 62 45  1  0
 11 14  1  0
 47 24  1  0
 37 27  1  0
 45 44  2  0
 13 25  2  0
 16 12  2  0
M  CHG  8  29  -1  30  -1  31  -1  32  -1  57   1  58   1  59   1  60   1
M  END
>  <ID>  (1082) 


>  <MOLENAME>  (1082) 
EVANS BLUE

>  <therap>  (1082) 
glutamate uptake inhibitor, AMPA blocker

>  <ref>  (1082) 
Scan J Clin Lab Invest14:605 (1962); Eur J Periatr 125:135 (1977); J Neurochem 65:96 (1995); Mol Pharmacol 50:1665 (1997)

>  <cas#>  (1082) 
314-13-6

>  <source>  (1082) 
synthetic; CI-23860, T-1824

>  <status>  (1082) 
USP-XXII

>  <tradename>  (1082) 
nan

>  <SMILES>  (1082) 
Cc1cc(-c2cc(C)c(/N=N/c3ccc4c(S(=O)(=O)O)cc(S(=O)(=O)O)c(N)c4c3O)cc2)ccc1/N=N/c1c(O)c2c(cc1)c(S(=O)(=O)O)cc(S(=O)(=O)O)c2N

>  <standardized_failed>  (1082) 
False

$$$$

     RDKit          2D

 13 11  0  0  0  0  0  0  0  0999 V2000
    1.7917   -3.3542    0.0000 C   0  0  0  0  0  0  0  0  0  0  0  0
    5.7417   -4.4792    0.0000 C   0  0  0  0  0  0  0  0  0  0  0  0
    2.2167   -2.6167    0.0000 N   0  0  0  0  0  0  0  0  0  0  0  0
    5.7417   -3.6625    0.0000 O   0  0  0  0  0  0  0  0  0  0  0  0
    2.1917   -4.0667    0.0000 N   0  0  0  0  0  0  0  0  0  0  0  0
    4.9792   -4.7542    0.0000 C   0  0  0  0  0  0  0  0  0  0  0  0
    1.0042   -3.3292    0.0000 N   0  0  0  0  0  0  0  0  0  0  0  0
    6.4167   -4.9542    0.0000 O   0  0  0  0  0  0  0  0  0  0  0  0
    5.0042   -5.6125    0.0000 N   0  0  0  0  0  0  0  0  0  0  0  0
    0.9292   -5.4625    0.0000 Cl  0  0  0  0  0  0  0  0  0  0  0  0
    3.0000   -3.9375    0.0000 C   0  0  0  0  0  0  0  0  0  0  0  0
    4.3000   -4.2917    0.0000 C   0  0  0  0  0  0  0  0  0  0  0  0
    3.5167   -4.5667    0.0000 C   0  0  0  0  0  0  0  0  0  0  0  0
  2  6  1  0
  3  1  2  0
  4  2  2  0
  5  1  1  0
  6 12  1  0
  7  1  1  0
  8  2  1  0
  9  6  1  0
 11  5  1  0
 12 13  1  0
 13 11  1  0
M  END
>  <ID>  (1083) 


>  <MOLENAME>  (1083) 
ARGININE HYDROCHLORIDE

>  <therap>  (1083) 
ammonia detoxicant, diagnostic aid

>  <ref>  (1083) 
Am. J. Respir. Crit. Care Med. (2006), 174(2), 208-212; Res. Exp. Med. (1980), 177(1), 57-70

>  <cas#>  (1083) 
1119-34-2

>  <source>  (1083) 
widespread in nature

>  <status>  (1083) 
USP

>  <tradename>  (1083) 
nan

>  <SMILES>  (1083) 
Cl.N=C(N)NCCCC(N)C(=O)O

>  <standardized_failed>  (1083) 
False

$$$$

     RDKit          2D

 16 16  0  0  0  0  0  0  0  0999 V2000
    5.6292   -2.4292    0.0000 C   0  0  0  0  0  0  0  0  0  0  0  0
    6.3417   -2.8375    0.0000 N   0  0  0  0  0  0  0  0  0  0  0  0
    4.9167   -2.8417    0.0000 C   0  0  0  0  0  0  0  0  0  0  0  0
    5.6250   -1.6042    0.0000 O   0  0  0  0  0  0  0  0  0  0  0  0
    4.2000   -2.4292    0.0000 C   0  0  0  0  0  0  0  0  0  0  0  0
    4.9167   -3.6708    0.0000 C   0  0  0  0  0  0  0  0  0  0  0  0
    2.0625   -3.6667    0.0000 N   0  0  0  0  0  0  0  0  0  0  0  0
    1.3500   -4.0708    0.0000 N   0  0  0  0  0  0  0  0  0  0  0  0
    3.4875   -2.8417    0.0000 C   0  0  0  0  0  0  0  0  0  0  0  0
    4.2000   -4.0833    0.0000 C   0  0  0  0  0  0  0  0  0  0  0  0
    3.4875   -3.6708    0.0000 C   0  0  0  0  0  0  0  0  0  0  0  0
    7.0542   -2.4250    0.0000 C   0  0  0  0  0  0  0  0  0  0  0  0
    2.7750   -4.0792    0.0000 C   0  0  0  0  0  0  0  0  0  0  0  0
    0.6375   -3.6625    0.0000 C   0  0  0  0  0  0  0  0  0  0  0  0
    7.7667   -2.8292    0.0000 C   0  0  0  0  0  0  0  0  0  0  0  0
    7.0500   -1.6000    0.0000 C   0  0  0  0  0  0  0  0  0  0  0  0
  2  1  1  0
  3  1  1  0
  4  1  2  0
  5  3  2  0
  6  3  1  0
  7 13  1  0
  8  7  1  0
  9  5  1  0
 10  6  2  0
 11  9  2  0
 12  2  1  0
 13 11  1  0
 14  8  1  0
 15 12  1  0
 16 12  1  0
 10 11  1  0
M  END
>  <ID>  (1084) 


>  <MOLENAME>  (1084) 
PROCARBAZINE HYDROCHLORIDE

>  <therap>  (1084) 
antineoplastic

>  <ref>  (1084) 
Toxicol Appl Pharmacol 18:185 (1971); Eur J Cancer 40:1924 (2004)

>  <cas#>  (1084) 
671-16-9

>  <source>  (1084) 
synthetic;RO-4-6467

>  <status>  (1084) 
USAN, INN, BAN, JAN

>  <tradename>  (1084) 
MATULANE

>  <SMILES>  (1084) 
CNNCc1ccc(C(=O)NC(C)C)cc1

>  <standardized_failed>  (1084) 
False

$$$$

     RDKit          2D

 24 26  0  0  0  0  0  0  0  0999 V2000
    3.5625   -4.8292    0.0000 C   0  0  0  0  0  0  0  0  0  0  0  0
    3.3875   -5.6292    0.0000 N   0  0  0  0  0  0  0  0  0  0  0  0
    2.8542   -4.4167    0.0000 N   0  0  0  0  0  0  0  0  0  0  0  0
    4.2792   -4.4167    0.0000 S   0  0  0  0  0  0  0  0  0  0  0  0
    5.7042   -4.4167    0.0000 C   0  0  0  0  0  0  0  0  0  0  0  0
    6.4167   -4.8292    0.0000 C   0  0  0  0  0  0  0  0  0  0  0  0
    2.2417   -4.9625    0.0000 C   0  0  0  0  0  0  0  0  0  0  0  0
    4.9917   -4.8292    0.0000 C   0  0  0  0  0  0  0  0  0  0  0  0
    2.5667   -5.7167    0.0000 C   0  0  0  0  0  0  0  0  0  0  0  0
    7.1292   -4.4167    0.0000 C   0  0  0  0  0  0  0  0  0  0  0  0
    5.7042   -3.5875    0.0000 N   0  0  0  0  0  0  0  0  0  0  0  0
    7.1292   -3.5875    0.0000 C   0  0  0  0  0  0  0  0  0  0  0  0
    1.4292   -4.8667    0.0000 C   0  0  0  0  0  0  0  0  0  0  0  0
    6.4167   -3.1750    0.0000 C   0  0  0  0  0  0  0  0  0  0  0  0
    4.2792   -3.5917    0.0000 O   0  0  0  0  0  0  0  0  0  0  0  0
    2.0792   -6.3667    0.0000 C   0  0  0  0  0  0  0  0  0  0  0  0
    0.9375   -5.5292    0.0000 C   0  0  0  0  0  0  0  0  0  0  0  0
    7.8500   -4.8292    0.0000 O   0  0  0  0  0  0  0  0  0  0  0  0
    1.2667   -6.2792    0.0000 C   0  0  0  0  0  0  0  0  0  0  0  0
    6.4167   -5.6542    0.0000 C   0  0  0  0  0  0  0  0  0  0  0  0
    0.1167   -5.4292    0.0000 O   0  0  0  0  0  0  0  0  0  0  0  0
    7.8417   -3.1667    0.0000 C   0  0  0  0  0  0  0  0  0  0  0  0
    7.8500   -5.6542    0.0000 C   0  0  0  0  0  0  0  0  0  0  0  0
   -0.2083   -4.6792    0.0000 C   0  0  0  0  0  0  0  0  0  0  0  0
  2  1  2  0
  3  1  1  0
  4  1  1  0
  5  8  1  0
  6  5  2  0
  7  3  1  0
  8  4  1  0
  9  2  1  0
 10  6  1  0
 11  5  1  0
 12 14  1  0
 13  7  2  0
 14 11  2  0
 15  4  2  0
 16  9  2  0
 17 13  1  0
 18 10  1  0
 19 16  1  0
 20  6  1  0
 21 17  1  0
 22 12  1  0
 23 18  1  0
 24 21  1  0
  7  9  1  0
 19 17  2  0
 12 10  2  0
M  END
>  <ID>  (1085) 


>  <MOLENAME>  (1085) 
OMEPRAZOLE

>  <therap>  (1085) 
gastric acid depressant

>  <ref>  (1085) 
Biochem. Biophys. Res. Comm. (1985), 128(1), 477-84; J. Med. Chem. (1989), 32(8), 1970-7; Nature (1981), 290(5802), 159-61

>  <cas#>  (1085) 
73590-58-6

>  <source>  (1085) 
synthetic; H-168/68

>  <status>  (1085) 
USP, INN, BAN, JAN

>  <tradename>  (1085) 
PRILOSEC

>  <SMILES>  (1085) 
COc1ccc2nc([S+]([O-])Cc3ncc(C)c(OC)c3C)[nH]c2c1

>  <standardized_failed>  (1085) 
False

$$$$

     RDKit          2D

 27 29  0  0  0  0  0  0  0  0999 V2000
    3.9875   -1.1042    0.0000 N   0  0  0  0  0  0  0  0  0  0  0  0
    3.1667   -1.0917    0.0000 C   0  0  0  0  0  0  0  0  0  0  0  0
    3.1667   -0.2667    0.0000 C   0  0  0  0  0  0  0  0  0  0  0  0
    3.9917   -0.2750    0.0000 C   0  0  0  0  0  0  0  0  0  0  0  0
    4.7000   -1.5167    0.0000 C   0  0  0  0  0  0  0  0  0  0  0  0
    2.4542    0.1458    0.0000 N   0  0  0  0  0  0  0  0  0  0  0  0
    4.7125    0.1375    0.0000 S   0  0  0  0  0  0  0  0  0  0  0  0
    1.7417   -0.2667    0.0000 C   0  0  0  0  0  0  0  0  0  0  0  0
    5.4167   -1.1125    0.0000 C   0  0  0  0  0  0  0  0  0  0  0  0
    4.6917   -2.3417    0.0000 C   0  0  0  0  0  0  0  0  0  0  0  0
    1.0250    0.1375    0.0000 C   0  0  0  0  0  0  0  0  0  0  0  0
    5.4250   -0.2792    0.0000 C   0  0  0  0  0  0  0  0  0  0  0  0
    2.5792   -1.6750    0.0000 O   0  0  0  0  0  0  0  0  0  0  0  0
    6.1292   -1.5292    0.0000 C   0  0  0  0  0  0  0  0  0  0  0  0
    1.7417   -1.0917    0.0000 O   0  0  0  0  0  0  0  0  0  0  0  0
    0.3125   -0.2792    0.0000 C   0  0  0  0  0  0  0  0  0  0  0  0
    3.9792   -2.7500    0.0000 O   0  0  0  0  0  0  0  0  0  0  0  0
    6.8500   -1.1167    0.0000 C   0  0  0  0  0  0  0  0  0  0  0  0
   -0.4083    0.1333    0.0000 C   0  0  0  0  0  0  0  0  0  0  0  0
    0.3125   -1.1042    0.0000 C   0  0  0  0  0  0  0  0  0  0  0  0
    1.0167    0.9625    0.0000 N   0  0  0  0  0  0  0  0  0  0  0  0
    5.4042   -2.7625    0.0000 O   0  0  0  0  0  0  0  0  0  0  0  0
   -1.1208   -1.1042    0.0000 C   0  0  0  0  0  0  0  0  0  0  0  0
   -1.1208   -0.2792    0.0000 C   0  0  0  0  0  0  0  0  0  0  0  0
   -0.4083   -1.5167    0.0000 C   0  0  0  0  0  0  0  0  0  0  0  0
   -1.8333   -1.5167    0.0000 O   0  0  0  0  0  0  0  0  0  0  0  0
    6.8542   -0.2917    0.0000 C   0  0  0  0  0  0  0  0  0  0  0  0
  2  1  1  0
  3  4  1  0
  4  1  1  0
  5  1  1  0
  6  3  1  0
  7  4  1  0
  8  6  1  0
  9  5  2  0
 10  5  1  0
 11  8  1  0
 12  9  1  0
 13  2  2  0
 14  9  1  0
 15  8  2  0
 16 11  1  0
 17 10  2  0
 18 14  2  0
 19 16  2  0
 20 16  1  0
 21 11  1  0
 22 10  1  0
 23 25  1  0
 24 19  1  0
 25 20  2  0
 26 23  1  0
 27 18  1  0
  3  2  1  0
  7 12  1  0
 23 24  2  0
M  END
>  <ID>  (1086) 


>  <MOLENAME>  (1086) 
CEFPROZIL

>  <therap>  (1086) 
antibacterial

>  <ref>  (1086) 
Antimicrob Agents Chemother 34:1204 (1990); 35:1940 (1991)

>  <cas#>  (1086) 
121123-17-9

>  <source>  (1086) 
semisynthetic; BMY-28100-03-800

>  <status>  (1086) 
USP, INN, BAN

>  <tradename>  (1086) 
CEFZIL

>  <SMILES>  (1086) 
C/C=C\C1=C(C(=O)O)N2C(=O)C(NC(=O)C(N)c3ccc(O)cc3)C2SC1

>  <standardized_failed>  (1086) 
False

$$$$

     RDKit          2D

 12 11  0  0  0  0  0  0  0  0999 V2000
    6.7250   -5.9792    0.0000 C   0  0  0  0  0  0  0  0  0  0  0  0
    6.0042   -5.5667    0.0000 C   0  0  0  0  0  0  0  0  0  0  0  0
    7.4375   -5.5667    0.0000 C   0  0  0  0  0  0  0  0  0  0  0  0
    6.0042   -4.7417    0.0000 C   0  0  0  0  0  0  0  0  0  0  0  0
    6.7250   -6.8125    0.0000 O   0  0  0  0  0  0  0  0  0  0  0  0
    5.2917   -5.9792    0.0000 O   0  0  0  0  0  0  0  0  0  0  0  0
    8.1500   -5.9792    0.0000 O   0  0  0  0  0  0  0  0  0  0  0  0
    5.2917   -4.3292    0.0000 O   0  0  0  0  0  0  0  0  0  0  0  0
    6.7167   -3.5000    0.0000 O   0  0  0  0  0  0  0  0  0  0  0  0
    8.1500   -4.3292    0.0000 O   0  0  0  0  0  0  0  0  0  0  0  0
    6.7167   -4.3292    0.0000 C   0  0  0  0  0  0  0  0  0  0  0  0
    7.4375   -4.7417    0.0000 C   0  0  0  0  0  0  0  0  0  0  0  0
  2  1  1  0
  3  1  1  0
  4  2  1  0
  1  5  1  1
  2  6  1  6
  3  7  1  1
  4  8  1  1
  9 11  1  0
 10 12  1  0
  4 11  1  0
 12  3  1  0
M  END
>  <ID>  (1087) 


>  <MOLENAME>  (1087) 
MANNITOL

>  <therap>  (1087) 
diuretic, sweetener, diagnostic aid

>  <ref>  (1087) 
Anesthesiology (2002), 96(2), 416-421; Neurol. Res. (1988), 10(2), 73-80; Stroke (1977), 8(4), 512-40

>  <cas#>  (1087) 
69-65-8

>  <source>  (1087) 
manna and seaweeds; exudates of olive and plane trees

>  <status>  (1087) 
USP

>  <tradename>  (1087) 
OSMITROL

>  <SMILES>  (1087) 
OC[C@H](O)[C@@H](O)[C@H](O)[C@H](O)CO

>  <standardized_failed>  (1087) 
False

$$$$

     RDKit          2D

 16 15  0  0  0  0  0  0  0  0999 V2000
    5.3667   -1.0125    0.0000 N   0  0  0  0  0  0  0  0  0  0  0  0
    4.6542   -1.4250    0.0000 C   0  0  0  0  0  0  0  0  0  0  0  0
    6.0792   -1.4167    0.0000 C   0  0  0  0  0  0  0  0  0  0  0  0
    4.6542   -2.2500    0.0000 N   0  0  0  0  0  0  0  0  0  0  0  0
    6.0792   -2.2417    0.0000 N   0  0  0  0  0  0  0  0  0  0  0  0
    3.9417   -1.0167    0.0000 N   0  0  0  0  0  0  0  0  0  0  0  0
    6.7917   -1.0042    0.0000 N   0  0  0  0  0  0  0  0  0  0  0  0
    7.9000   -1.4917    0.0000 Cl  0  0  0  0  0  0  0  0  0  0  0  0
    3.2292   -1.4292    0.0000 C   0  0  0  0  0  0  0  0  0  0  0  0
    1.8042   -1.4292    0.0000 C   0  0  0  0  0  0  0  0  0  0  0  0
    2.5167   -1.0167    0.0000 C   0  0  0  0  0  0  0  0  0  0  0  0
    1.8042   -2.2625    0.0000 C   0  0  0  0  0  0  0  0  0  0  0  0
    1.0875   -1.0167    0.0000 C   0  0  0  0  0  0  0  0  0  0  0  0
    1.0875   -2.6750    0.0000 C   0  0  0  0  0  0  0  0  0  0  0  0
    0.3750   -1.4375    0.0000 C   0  0  0  0  0  0  0  0  0  0  0  0
    0.3750   -2.2625    0.0000 C   0  0  0  0  0  0  0  0  0  0  0  0
  2  1  1  0
  3  1  1  0
  4  2  2  0
  5  3  2  0
  6  2  1  0
  7  3  1  0
  9  6  1  0
 10 11  1  0
 11  9  1  0
 12 10  2  0
 13 10  1  0
 14 12  1  0
 15 13  2  0
 16 14  2  0
 15 16  1  0
M  END
>  <ID>  (1088) 


>  <MOLENAME>  (1088) 
PHENFORMIN HYDROCHLORIDE

>  <therap>  (1088) 
antidiabetic

>  <ref>  (1088) 
JACS 81:2220 (1959); Ann Pharmacother27:1183 (1993)

>  <cas#>  (1088) 
834-28-6

>  <source>  (1088) 
synthetic

>  <status>  (1088) 
USP-XIX, INN, BAN

>  <tradename>  (1088) 
DBI

>  <SMILES>  (1088) 
N=C(N)NC(=N)NCCc1ccccc1

>  <standardized_failed>  (1088) 
False

$$$$

     RDKit          2D

 19 19  0  0  0  0  0  0  0  0999 V2000
    5.2417   -1.7167    0.0000 C   0  0  0  0  0  0  0  0  0  0  0  0
    5.9542   -1.3042    0.0000 C   0  0  0  0  0  0  0  0  0  0  0  0
    5.2375   -0.8917    0.0000 C   0  0  0  0  0  0  0  0  0  0  0  0
    5.2417   -2.5375    0.0000 C   0  0  0  0  0  0  0  0  0  0  0  0
    4.5250   -2.9458    0.0000 N   0  0  0  0  0  0  0  0  0  0  0  0
    4.5292   -1.3083    0.0000 C   0  0  0  0  0  0  0  0  0  0  0  0
    5.9542   -2.9500    0.0000 O   0  0  0  0  0  0  0  0  0  0  0  0
    6.6667   -1.7125    0.0000 C   0  0  0  0  0  0  0  0  0  0  0  0
    7.3792   -1.2958    0.0000 N   0  0  0  0  0  0  0  0  0  0  0  0
    9.0292   -1.6292    0.0000 Cl  0  0  0  0  0  0  0  0  0  0  0  0
    4.5250   -3.7708    0.0000 C   0  0  0  0  0  0  0  0  0  0  0  0
    3.8125   -2.5333    0.0000 C   0  0  0  0  0  0  0  0  0  0  0  0
    4.5292   -0.4792    0.0000 C   0  0  0  0  0  0  0  0  0  0  0  0
    3.8125   -1.7208    0.0000 C   0  0  0  0  0  0  0  0  0  0  0  0
    3.0958   -2.9458    0.0000 C   0  0  0  0  0  0  0  0  0  0  0  0
    3.8083   -4.1833    0.0000 C   0  0  0  0  0  0  0  0  0  0  0  0
    3.8125   -0.0667    0.0000 C   0  0  0  0  0  0  0  0  0  0  0  0
    3.1000   -1.3083    0.0000 C   0  0  0  0  0  0  0  0  0  0  0  0
    3.1000   -0.4792    0.0000 C   0  0  0  0  0  0  0  0  0  0  0  0
  2  1  1  0
  3  1  1  0
  4  1  1  0
  5  4  1  0
  6  1  1  0
  7  4  2  0
  8  2  1  0
  9  8  1  0
 11  5  1  0
 12  5  1  0
 13  6  2  0
 14  6  1  0
 15 12  1  0
 16 11  1  0
 17 13  1  0
 18 14  2  0
 19 17  2  0
  2  3  1  0
 18 19  1  0
M  END
>  <ID>  (1089) 


>  <MOLENAME>  (1089) 
MILNACIPRAN HYDROCHLORIDE

>  <therap>  (1089) 
inhibitor of norepinephrine and seritonin uptake, treatment of fibromyalgia

>  <ref>  (1089) 
Psychopharmacology (1987), 91(2), 147-53; J. Med. Chem. (1987), 30(2), 318-25; Neuropharmacology (1985), 24(12), 1211-19

>  <cas#>  (1089) 
101152-94-7

>  <source>  (1089) 
synthetic; UNII-RNZ4305WW5

>  <status>  (1089) 
USAN, INN, BAN

>  <tradename>  (1089) 
SAVELLA

>  <SMILES>  (1089) 
CCN(CC)C(=O)C1(c2ccccc2)CC1CN

>  <standardized_failed>  (1089) 
False

$$$$

     RDKit          2D

 46 48  0  0  0  0  0  0  0  0999 V2000
    9.0500   -1.7167    0.0000 C   0  0  0  0  0  0  0  0  0  0  0  0
    9.0417   -0.8917    0.0000 C   0  0  0  0  0  0  0  0  0  0  0  0
    4.7792   -1.7292    0.0000 S   0  0  0  0  0  0  0  0  0  0  0  0
    8.3417   -2.1292    0.0000 N   0  0  0  0  0  0  0  0  0  0  0  0
    7.6250   -1.7292    0.0000 C   0  0  0  0  0  0  0  0  0  0  0  0
    9.8167   -0.6417    0.0000 N   0  0  0  0  0  0  0  0  0  0  0  0
    8.3250   -0.4917    0.0000 C   0  0  0  0  0  0  0  0  0  0  0  0
    7.6250   -0.9042    0.0000 N   0  0  0  0  0  0  0  0  0  0  0  0
   10.3000   -1.3042    0.0000 N   0  0  0  0  0  0  0  0  0  0  0  0
    9.8250   -1.9667    0.0000 C   0  0  0  0  0  0  0  0  0  0  0  0
    6.9125   -2.1292    0.0000 C   0  0  0  0  0  0  0  0  0  0  0  0
    4.0667   -2.1417    0.0000 N   0  0  0  0  0  0  0  0  0  0  0  0
   -0.0833   -2.1792    0.0000 C   0  0  0  0  0  0  0  0  0  0  0  0
    5.4917   -2.1417    0.0000 C   0  0  0  0  0  0  0  0  0  0  0  0
    6.2042   -1.7292    0.0000 C   0  0  0  0  0  0  0  0  0  0  0  0
    0.2250   -1.6500    0.0000 C   0  0  0  0  0  0  0  0  0  0  0  0
   -0.3875   -2.7167    0.0000 C   0  0  0  0  0  0  0  0  0  0  0  0
   -0.6333   -2.0542    0.0000 C   0  0  0  0  0  0  0  0  0  0  0  0
    5.3625   -1.1417    0.0000 O   0  0  0  0  0  0  0  0  0  0  0  0
    4.1917   -1.1417    0.0000 O   0  0  0  0  0  0  0  0  0  0  0  0
   -0.0750   -1.1292    0.0000 C   0  0  0  0  0  0  0  0  0  0  0  0
   -0.0833   -3.2292    0.0000 C   0  0  0  0  0  0  0  0  0  0  0  0
    2.6500   -2.9667    0.0000 N   0  0  0  0  0  0  0  0  0  0  0  0
    3.3542   -1.7292    0.0000 C   0  0  0  0  0  0  0  0  0  0  0  0
    4.0667   -2.9667    0.0000 C   0  0  0  0  0  0  0  0  0  0  0  0
    6.9125   -2.9542    0.0000 C   0  0  0  0  0  0  0  0  0  0  0  0
    8.3167    0.3333    0.0000 O   0  0  0  0  0  0  0  0  0  0  0  0
    5.4875   -2.9542    0.0000 C   0  0  0  0  0  0  0  0  0  0  0  0
   -0.9000   -1.6000    0.0000 O   0  0  0  0  0  0  0  0  0  0  0  0
    0.5167   -3.2292    0.0000 O   0  0  0  0  0  0  0  0  0  0  0  0
   -0.6833   -1.1292    0.0000 O   0  0  0  0  0  0  0  0  0  0  0  0
    6.2000   -3.3667    0.0000 C   0  0  0  0  0  0  0  0  0  0  0  0
    2.6500   -2.1417    0.0000 C   0  0  0  0  0  0  0  0  0  0  0  0
    3.3542   -3.3792    0.0000 C   0  0  0  0  0  0  0  0  0  0  0  0
    0.4417   -2.4875    0.0000 O   0  0  0  0  0  0  0  0  0  0  0  0
   10.0750    0.1458    0.0000 C   0  0  0  0  0  0  0  0  0  0  0  0
   -1.0375   -2.5042    0.0000 O   0  0  0  0  0  0  0  0  0  0  0  0
   -0.3875   -3.7542    0.0000 O   0  0  0  0  0  0  0  0  0  0  0  0
    0.2250   -0.6042    0.0000 O   0  0  0  0  0  0  0  0  0  0  0  0
   10.0792   -2.7417    0.0000 C   0  0  0  0  0  0  0  0  0  0  0  0
    7.6292   -3.3667    0.0000 O   0  0  0  0  0  0  0  0  0  0  0  0
    1.9292   -3.3792    0.0000 C   0  0  0  0  0  0  0  0  0  0  0  0
    7.6375   -4.1917    0.0000 C   0  0  0  0  0  0  0  0  0  0  0  0
    9.5375   -3.3667    0.0000 C   0  0  0  0  0  0  0  0  0  0  0  0
    8.3500   -4.6042    0.0000 C   0  0  0  0  0  0  0  0  0  0  0  0
    9.7917   -4.1417    0.0000 C   0  0  0  0  0  0  0  0  0  0  0  0
  2  1  2  0
  3 14  1  0
  4  1  1  0
  5  4  2  0
  6  2  1  0
  7  2  1  0
  8  5  1  0
  9 10  2  0
 10  1  1  0
 11  5  1  0
 12  3  1  0
 14 15  2  0
 15 11  1  0
 16 13  1  0
 17 13  1  0
 18 13  1  0
 19  3  2  0
 20  3  2  0
 21 16  1  0
 22 17  1  0
 23 34  1  0
 24 12  1  0
 25 12  1  0
 26 11  2  0
 27  7  2  0
 28 32  2  0
 29 18  2  0
 30 22  2  0
 31 21  2  0
 32 26  1  0
 33 24  1  0
 34 25  1  0
 35 13  1  0
 36  6  1  0
 37 18  1  0
 38 22  1  0
 39 21  1  0
 40 10  1  0
 41 26  1  0
 42 23  1  0
 43 41  1  0
 44 40  1  0
 45 43  1  0
 46 44  1  0
  9  6  1  0
  7  8  1  0
 14 28  1  0
 33 23  1  0
M  END
>  <ID>  (1090) 


>  <MOLENAME>  (1090) 
SILDENAFIL CITRATE

>  <therap>  (1090) 
erectile dysfunction therapy

>  <ref>  (1090) 
N Engl J Med 338:1397 (1998); Int J Impot Res 8:47 (1996); 14 Suppl 1:S43 (2002); J Am Col Cardiol43:1149 (2004)

>  <cas#>  (1090) 
139755-83-2

>  <source>  (1090) 
synthetic; UK-92480-10

>  <status>  (1090) 
USAN, INN, BAN

>  <tradename>  (1090) 
VIAGRA

>  <SMILES>  (1090) 
CCCc1nn(C)c2c1nc(-c1c(OCC)ccc(S(=O)(=O)N3CCN(C)CC3)c1)[nH]c2=O

>  <standardized_failed>  (1090) 
False

$$$$

     RDKit          2D

 17 18  0  0  0  0  0  0  0  0999 V2000
    2.8500   -1.7792    0.0000 C   0  0  0  0  0  0  0  0  0  0  0  0
    1.5417   -1.7792    0.0000 C   0  0  0  0  0  0  0  0  0  0  0  0
    1.5417   -1.0250    0.0000 C   0  0  0  0  0  0  0  0  0  0  0  0
    2.1917   -2.1542    0.0000 C   0  0  0  0  0  0  0  0  0  0  0  0
    2.1917   -0.6417    0.0000 N   0  0  0  0  0  0  0  0  0  0  0  0
    2.8500   -1.0250    0.0000 C   0  0  0  0  0  0  0  0  0  0  0  0
    0.8875   -0.6417    0.0000 N   0  0  0  0  0  0  0  0  0  0  0  0
    3.5000   -2.1542    0.0000 C   0  0  0  0  0  0  0  0  0  0  0  0
    0.8875   -2.1542    0.0000 C   0  0  0  0  0  0  0  0  0  0  0  0
    2.1917   -2.9042    0.0000 O   0  0  0  0  0  0  0  0  0  0  0  0
    4.1500   -1.7792    0.0000 O   0  0  0  0  0  0  0  0  0  0  0  0
    0.2417   -1.0250    0.0000 C   0  0  0  0  0  0  0  0  0  0  0  0
    3.5000   -2.9042    0.0000 O   0  0  0  0  0  0  0  0  0  0  0  0
    0.2417   -1.7792    0.0000 C   0  0  0  0  0  0  0  0  0  0  0  0
    2.1917    0.1083    0.0000 C   0  0  0  0  0  0  0  0  0  0  0  0
   -0.4125   -0.6500    0.0000 C   0  0  0  0  0  0  0  0  0  0  0  0
    2.8417    0.4833    0.0000 C   0  0  0  0  0  0  0  0  0  0  0  0
  2  4  1  0
  3  5  1  0
  4  1  1  0
  5  6  1  0
  6  1  2  0
  7  3  2  0
  8  1  1  0
  9  2  2  0
 10  4  2  0
 11  8  2  0
 12  7  1  0
 13  8  1  0
 14  9  1  0
 15  5  1  0
 16 12  1  0
 17 15  1  0
  3  2  1  0
 14 12  2  0
M  END
>  <ID>  (1091) 


>  <MOLENAME>  (1091) 
NALIDIXIC ACID

>  <therap>  (1091) 
antibacterial

>  <ref>  (1091) 
Antibiotics (1979), 5(1), 154-75; Prog. Drug Res. (1977), 21, 9-104; J. Bacteriol. (1964), 88, 1112-8

>  <cas#>  (1091) 
389-08-2, 3374-05-8 [anhydrous], 15769-77-4 [nalidixate sodium]

>  <source>  (1091) 
synthetic; WIN-18320

>  <status>  (1091) 
USP, INN, BAN, JAN

>  <tradename>  (1091) 
NEGGRAM

>  <SMILES>  (1091) 
CCn1cc(C(=O)O)c(=O)c2ccc(C)nc21

>  <standardized_failed>  (1091) 
False

$$$$

     RDKit          2D

 26 25  0  0  0  0  0  0  0  0999 V2000
    5.2917   -2.0542    0.0000 C   0  0  0  0  0  0  0  0  0  0  0  0
    3.8667   -2.8792    0.0000 C   0  0  0  0  0  0  0  0  0  0  0  0
    3.8667   -2.0542    0.0000 C   0  0  0  0  0  0  0  0  0  0  0  0
    7.4000   -4.2750    0.0000 P   0  0  0  0  0  0  0  0  0  0  0  0
    4.5792   -1.6417    0.0000 C   0  0  0  0  0  0  0  0  0  0  0  0
    6.0042   -1.6417    0.0000 C   0  0  0  0  0  0  0  0  0  0  0  0
    4.5792   -3.2917    0.0000 C   0  0  0  0  0  0  0  0  0  0  0  0
    3.1542   -3.2917    0.0000 N   0  0  0  0  0  0  0  0  0  0  0  0
    5.2917   -2.8792    0.0000 C   0  0  0  0  0  0  0  0  0  0  0  0
    2.4417   -2.8792    0.0000 C   0  0  0  0  0  0  0  0  0  0  0  0
    3.1542   -1.6417    0.0000 O   0  0  0  0  0  0  0  0  0  0  0  0
    6.6792   -3.8625    0.0000 O   0  0  0  0  0  0  0  0  0  0  0  0
    6.0125   -0.8167    0.0000 O   0  0  0  0  0  0  0  0  0  0  0  0
    2.4375   -2.0542    0.0000 O   0  0  0  0  0  0  0  0  0  0  0  0
    6.9000   -4.7792    0.0000 O   0  0  0  0  0  0  0  0  0  0  0  0
    8.1125   -3.8625    0.0000 O   0  0  0  0  0  0  0  0  0  0  0  0
    7.9917   -4.7417    0.0000 O   0  0  0  0  0  0  0  0  0  0  0  0
    4.5792   -4.1167    0.0000 N   0  0  0  0  0  0  0  0  0  0  0  0
    6.7167   -2.0625    0.0000 O   0  0  0  0  0  0  0  0  0  0  0  0
    3.1500   -0.8167    0.0000 C   0  0  0  0  0  0  0  0  0  0  0  0
    1.7250   -3.2917    0.0000 C   0  0  0  0  0  0  0  0  0  0  0  0
    6.7167   -2.8875    0.0000 C   0  0  0  0  0  0  0  0  0  0  0  0
    2.4292   -0.4125    0.0000 C   0  0  0  0  0  0  0  0  0  0  0  0
    3.8625   -0.4042    0.0000 C   0  0  0  0  0  0  0  0  0  0  0  0
    2.4292    0.4125    0.0000 C   0  0  0  0  0  0  0  0  0  0  0  0
    3.8625    0.4208    0.0000 C   0  0  0  0  0  0  0  0  0  0  0  0
  2  3  1  0
  3  5  1  0
  5  1  2  0
  6  1  1  0
  7  9  1  0
  2  8  1  1
  9  1  1  0
 10  8  1  0
  3 11  1  6
 12  4  2  0
 13  6  2  0
 14 10  2  0
 15  4  1  0
 16  4  1  0
 17  4  1  0
  7 18  1  6
 19  6  1  0
 20 11  1  0
 21 10  1  0
 22 19  1  0
 23 20  1  0
 24 20  1  0
 25 23  1  0
 26 24  1  0
  7  2  1  0
M  END
>  <ID>  (1092) 


>  <MOLENAME>  (1092) 
OSELTAMIVIR PHOSPHATE

>  <therap>  (1092) 
antiviral

>  <ref>  (1092) 
N Engl J Med 353:2667 (2005); Lancet 369:1056 (2007)  

>  <cas#>  (1092) 
196618-13-0

>  <source>  (1092) 
synthetic; Ro-64-0796/002

>  <status>  (1092) 
USAN

>  <tradename>  (1092) 
TAMIFLU

>  <SMILES>  (1092) 
CCC(CC)O[C@@H]1C=C(C(=O)OC)C[C@H](N)[C@H]1NC(C)=O

>  <standardized_failed>  (1092) 
False

$$$$

     RDKit          2D

 23 22  0  0  0  0  0  0  0  0999 V2000
    1.3417    0.0708    0.0000 C   0  0  0  0  0  0  0  0  0  0  0  0
    2.0583   -0.3417    0.0000 C   0  0  0  0  0  0  0  0  0  0  0  0
    2.7708    0.0708    0.0000 C   0  0  0  0  0  0  0  0  0  0  0  0
    3.4875   -0.3417    0.0000 C   0  0  0  0  0  0  0  0  0  0  0  0
    3.4875   -1.1708    0.0000 C   0  0  0  0  0  0  0  0  0  0  0  0
    1.3417    0.8958    0.0000 O   0  0  0  0  0  0  0  0  0  0  0  0
    2.0583   -1.1708    0.0000 C   0  0  0  0  0  0  0  0  0  0  0  0
    2.7708   -1.5833    0.0000 C   0  0  0  0  0  0  0  0  0  0  0  0
    0.6292   -0.3417    0.0000 O   0  0  0  0  0  0  0  0  0  0  0  0
    4.2042   -1.5833    0.0000 N   0  0  0  0  0  0  0  0  0  0  0  0
   -1.5083    0.0583    0.0000 N   0  0  0  0  0  0  0  0  0  0  0  0
    4.2000    0.0708    0.0000 O   0  0  0  0  0  0  0  0  0  0  0  0
   -1.4083   -1.3667    0.0000 Cl  0  0  0  0  0  0  0  0  0  0  0  0
   -0.0833    0.0625    0.0000 C   0  0  0  0  0  0  0  0  0  0  0  0
   -0.7958   -0.3500    0.0000 C   0  0  0  0  0  0  0  0  0  0  0  0
   -1.5083    0.8833    0.0000 C   0  0  0  0  0  0  0  0  0  0  0  0
   -2.2208   -0.3542    0.0000 C   0  0  0  0  0  0  0  0  0  0  0  0
    4.9125   -0.3375    0.0000 C   0  0  0  0  0  0  0  0  0  0  0  0
    5.6250    0.0750    0.0000 C   0  0  0  0  0  0  0  0  0  0  0  0
    6.3375   -0.3292    0.0000 C   0  0  0  0  0  0  0  0  0  0  0  0
   -0.7958    1.3000    0.0000 C   0  0  0  0  0  0  0  0  0  0  0  0
   -2.9333    0.0583    0.0000 C   0  0  0  0  0  0  0  0  0  0  0  0
    7.0500    0.0833    0.0000 C   0  0  0  0  0  0  0  0  0  0  0  0
  2  1  1  0
  3  2  2  0
  4  3  1  0
  5  8  1  0
  6  1  2  0
  7  2  1  0
  8  7  2  0
  9  1  1  0
 10  5  1  0
 11 15  1  0
 12  4  1  0
 14  9  1  0
 15 14  1  0
 16 11  1  0
 17 11  1  0
 18 12  1  0
 19 18  1  0
 20 19  1  0
 21 16  1  0
 22 17  1  0
 23 20  1  0
  4  5  2  0
M  END
>  <ID>  (1093) 


>  <MOLENAME>  (1093) 
BENOXINATE HYDROCHLORIDE

>  <therap>  (1093) 
anesthetic (local)

>  <ref>  (1093) 
Arch Ophthalmol 51:663 (1954); Optomitry Vision Sci 74:1025 (1997)

>  <cas#>  (1093) 
5987-82-6

>  <source>  (1093) 
synthetic

>  <status>  (1093) 
USP, INN, BAN, JAN

>  <tradename>  (1093) 
CEBESINE

>  <SMILES>  (1093) 
CCCCOc1c(N)ccc(C(=O)OCCN(CC)CC)c1

>  <standardized_failed>  (1093) 
False

$$$$

     RDKit          2D

 14 13  0  0  0  0  0  0  0  0999 V2000
    9.1167   -2.1542    0.0000 S   0  0  0  0  0  0  0  0  0  0  0  0
    6.3000   -1.4667    0.0000 C   0  0  0  0  0  0  0  0  0  0  0  0
    9.1125   -1.4875    0.0000 O   0  0  0  0  0  0  0  0  0  0  0  0
    8.4042   -2.1542    0.0000 O   0  0  0  0  0  0  0  0  0  0  0  0
    5.5792   -1.0542    0.0000 N   0  0  0  0  0  0  0  0  0  0  0  0
    7.0125   -1.0500    0.0000 N   0  0  0  0  0  0  0  0  0  0  0  0
    5.5792   -2.7042    0.0000 N   0  0  0  0  0  0  0  0  0  0  0  0
    9.1167   -2.8292    0.0000 O   0  0  0  0  0  0  0  0  0  0  0  0
    9.7000   -2.1625    0.0000 O   0  0  0  0  0  0  0  0  0  0  0  0
    6.3000   -2.2917    0.0000 C   0  0  0  0  0  0  0  0  0  0  0  0
    4.8667   -1.4667    0.0000 C   0  0  0  0  0  0  0  0  0  0  0  0
    4.8667   -2.2917    0.0000 C   0  0  0  0  0  0  0  0  0  0  0  0
    7.0042   -0.2167    0.0000 C   0  0  0  0  0  0  0  0  0  0  0  0
    7.7292   -1.4542    0.0000 C   0  0  0  0  0  0  0  0  0  0  0  0
  3  1  2  0
  4  1  2  0
  5  2  2  0
  6  2  1  0
  7 10  2  0
  8  1  1  0
  9  1  1  0
 10  2  1  0
 11  5  1  0
 12  7  1  0
 13  6  1  0
 14  6  1  0
 11 12  2  0
M  END
>  <ID>  (1094) 


>  <MOLENAME>  (1094) 
AMPYZINE SULFATE

>  <therap>  (1094) 
CNS stimulant

>  <ref>  (1094) 
Eur J Pharmacol 2:144 (1967)

>  <cas#>  (1094) 
7082-29-3

>  <source>  (1094) 
synthetic; W-3580B

>  <status>  (1094) 
USAN, INN

>  <tradename>  (1094) 
nan

>  <SMILES>  (1094) 
CN(C)c1nccnc1

>  <standardized_failed>  (1094) 
False

$$$$

     RDKit          2D

 22 23  0  0  0  0  0  0  0  0999 V2000
    6.3042   -4.6625    0.0000 S   0  0  0  0  0  0  0  0  0  0  0  0
    6.3042   -5.4875    0.0000 N   0  0  0  0  0  0  0  0  0  0  0  0
    5.5792   -5.9000    0.0000 C   0  0  0  0  0  0  0  0  0  0  0  0
    4.8667   -5.4875    0.0000 N   0  0  0  0  0  0  0  0  0  0  0  0
    7.1292   -4.6667    0.0000 C   0  0  0  0  0  0  0  0  0  0  0  0
    4.8667   -7.1375    0.0000 N   0  0  0  0  0  0  0  0  0  0  0  0
    6.3125   -3.8375    0.0000 O   0  0  0  0  0  0  0  0  0  0  0  0
    5.4750   -4.6667    0.0000 O   0  0  0  0  0  0  0  0  0  0  0  0
    4.1542   -5.9000    0.0000 C   0  0  0  0  0  0  0  0  0  0  0  0
    4.1542   -6.7250    0.0000 C   0  0  0  0  0  0  0  0  0  0  0  0
    5.5792   -6.7250    0.0000 C   0  0  0  0  0  0  0  0  0  0  0  0
    7.5417   -3.9500    0.0000 C   0  0  0  0  0  0  0  0  0  0  0  0
    7.5417   -5.3792    0.0000 C   0  0  0  0  0  0  0  0  0  0  0  0
    8.7875   -4.6667    0.0000 C   0  0  0  0  0  0  0  0  0  0  0  0
    9.6125   -4.6667    0.0000 N   0  0  0  0  0  0  0  0  0  0  0  0
    8.3750   -3.9500    0.0000 C   0  0  0  0  0  0  0  0  0  0  0  0
    8.3750   -5.3792    0.0000 C   0  0  0  0  0  0  0  0  0  0  0  0
    6.9542   -6.4625    0.0000 Na  0  0  0  0  0 15  0  0  0  0  0  0
    3.4417   -5.4875    0.0000 C   0  0  0  0  0  0  0  0  0  0  0  0
    3.4417   -7.1375    0.0000 C   0  0  0  0  0  0  0  0  0  0  0  0
    2.7250   -5.9000    0.0000 C   0  0  0  0  0  0  0  0  0  0  0  0
    2.7250   -6.7250    0.0000 C   0  0  0  0  0  0  0  0  0  0  0  0
  2  1  1  0
  3  2  1  0
  4  3  2  0
  5  1  1  0
  6 11  2  0
  7  1  2  0
  8  1  2  0
  9  4  1  0
 10  6  1  0
 11  3  1  0
 12  5  2  0
 13  5  1  0
 14 17  1  0
 15 14  1  0
 16 12  1  0
 17 13  2  0
 19  9  2  0
 20 10  2  0
 21 19  1  0
 22 20  1  0
 16 14  2  0
  9 10  1  0
 21 22  2  0
M  CHG  2   2  -1  18   1
M  END
>  <ID>  (1095) 


>  <MOLENAME>  (1095) 
SULFAQUINOXALINE SODIUM

>  <therap>  (1095) 
antibacterial, coccidiostat

>  <ref>  (1095) 
Vet Rec 113:608 (1983); 114:60 (1984)

>  <cas#>  (1095) 
59-40-5

>  <source>  (1095) 
synthetic

>  <status>  (1095) 
USP, INN, BAN

>  <tradename>  (1095) 
AVIOCHINA

>  <SMILES>  (1095) 
Nc1ccc(S(=O)(=O)Nc2nc3ccccc3nc2)cc1

>  <standardized_failed>  (1095) 
False

$$$$

     RDKit          2D

 11 10  0  0  0  0  0  0  0  0999 V2000
    7.9375   -3.3667    0.0000 C   0  0  0  0  0  0  0  0  0  0  0  0
    7.1875   -3.3667    0.0000 C   0  0  0  0  0  0  0  0  0  0  0  0
    8.3125   -4.0042    0.0000 O   0  0  0  0  0  0  0  0  0  0  0  0
    8.3125   -2.7167    0.0000 O   0  0  0  0  0  0  0  0  0  0  0  0
    6.8125   -2.7167    0.0000 C   0  0  0  0  0  0  0  0  0  0  0  0
    6.8125   -4.0042    0.0000 C   0  0  0  0  0  0  0  0  0  0  0  0
    5.6875   -3.3667    0.0000 C   0  0  0  0  0  0  0  0  0  0  0  0
    4.9375   -3.3667    0.0000 N   0  0  0  0  0  0  0  0  0  0  0  0
    6.0625   -4.0042    0.0000 C   0  0  0  0  0  0  0  0  0  0  0  0
    6.0625   -2.7167    0.0000 C   0  0  0  0  0  0  0  0  0  0  0  0
    9.2917   -3.2792    0.0000 K   0  0  0  0  0 15  0  0  0  0  0  0
  2  1  1  0
  3  1  1  0
  4  1  2  0
  5  2  2  0
  6  2  1  0
  7  9  1  0
  8  7  1  0
  9  6  2  0
 10  5  1  0
 10  7  2  0
M  CHG  2   3  -1  11   1
M  END
>  <ID>  (1096) 


>  <MOLENAME>  (1096) 
POTASSIUM p-AMINOBENZOATE

>  <therap>  (1096) 
ultraviolet screen

>  <ref>  (1096) 
Br J Sex Med 6:29 (1970); Pneumonologie 152:75 (1975); Br J Urol 52:392 (1980)

>  <cas#>  (1096) 
150-13-0 (acid)

>  <source>  (1096) 
synthetic

>  <status>  (1096) 
USP

>  <tradename>  (1096) 
KPABA

>  <SMILES>  (1096) 
Nc1ccc(C(=O)O)cc1

>  <standardized_failed>  (1096) 
False

$$$$

     RDKit          2D

 21 22  0  0  0  0  0  0  0  0999 V2000
    6.1667   -5.0125    0.0000 N   0  0  0  0  0  0  0  0  0  0  0  0
    6.1667   -6.5125    0.0000 S   0  0  0  0  0  0  0  0  0  0  0  0
    5.5167   -5.3875    0.0000 C   0  0  0  0  0  0  0  0  0  0  0  0
    6.8167   -5.3875    0.0000 C   0  0  0  0  0  0  0  0  0  0  0  0
    6.1667   -4.2542    0.0000 C   0  0  0  0  0  0  0  0  0  0  0  0
    5.5167   -6.1375    0.0000 C   0  0  0  0  0  0  0  0  0  0  0  0
    6.8167   -6.1375    0.0000 C   0  0  0  0  0  0  0  0  0  0  0  0
    5.5167   -3.8875    0.0000 C   0  0  0  0  0  0  0  0  0  0  0  0
    4.8792   -4.2542    0.0000 N   0  0  0  0  0  0  0  0  0  0  0  0
    6.7667   -3.5917    0.0000 Cl  0  0  0  0  0  0  0  0  0  0  0  0
    4.8792   -5.0125    0.0000 C   0  0  0  0  0  0  0  0  0  0  0  0
    7.4667   -5.0125    0.0000 C   0  0  0  0  0  0  0  0  0  0  0  0
    7.4667   -6.5125    0.0000 C   0  0  0  0  0  0  0  0  0  0  0  0
    4.8792   -6.5125    0.0000 C   0  0  0  0  0  0  0  0  0  0  0  0
    4.8792   -4.8250    0.0000 C   0  0  0  0  0  0  0  0  0  0  0  0
    4.2292   -3.8875    0.0000 C   0  0  0  0  0  0  0  0  0  0  0  0
    5.5167   -3.1375    0.0000 C   0  0  0  0  0  0  0  0  0  0  0  0
    4.2292   -5.3875    0.0000 C   0  0  0  0  0  0  0  0  0  0  0  0
    8.1167   -5.3875    0.0000 C   0  0  0  0  0  0  0  0  0  0  0  0
    8.1167   -6.1375    0.0000 C   0  0  0  0  0  0  0  0  0  0  0  0
    4.2292   -6.1375    0.0000 C   0  0  0  0  0  0  0  0  0  0  0  0
  2  7  1  0
  3  1  1  0
  4  1  1  0
  5  1  1  0
  6  3  2  0
  7  4  2  0
  8  5  1  0
  9  8  1  0
 11  3  1  0
 12  4  1  0
 13  7  1  0
 14  6  1  0
 15  9  1  0
 16  9  1  0
 17  8  1  0
 18 11  2  0
 19 12  2  0
 20 19  1  0
 21 18  1  0
  2  6  1  0
 20 13  2  0
 21 14  2  0
M  END
>  <ID>  (1097) 


>  <MOLENAME>  (1097) 
PROMETHAZINE HYDROCHLORIDE

>  <therap>  (1097) 
antihistaminic

>  <ref>  (1097) 
Coll Czech Chem Commun 34:1019 (1969); Anal Profiles Drug Subs 5:429 (1976)

>  <cas#>  (1097) 
58-33-3, 60-87-7 [promethazine]

>  <source>  (1097) 
synthetic; RP-3277

>  <status>  (1097) 
USP, INN, BAN, JAN

>  <tradename>  (1097) 
PHENERGAN

>  <SMILES>  (1097) 
CC(CN1c2c(cccc2)Sc2c1cccc2)N(C)C

>  <standardized_failed>  (1097) 
False

$$$$

     RDKit          2D

 25 26  0  0  0  0  0  0  0  0999 V2000
    4.6667   -0.9083    0.0000 C   0  0  0  0  0  0  0  0  0  0  0  0
    4.1792   -0.2375    0.0000 N   0  0  0  0  0  0  0  0  0  0  0  0
    4.1792   -1.5750    0.0000 N   0  0  0  0  0  0  0  0  0  0  0  0
    5.4917   -0.9083    0.0000 S   0  0  0  0  0  0  0  0  0  0  0  0
    3.3958   -1.3208    0.0000 C   0  0  0  0  0  0  0  0  0  0  0  0
    6.7292   -1.6208    0.0000 C   0  0  0  0  0  0  0  0  0  0  0  0
    7.1375   -2.3375    0.0000 C   0  0  0  0  0  0  0  0  0  0  0  0
    3.3958   -0.4958    0.0000 C   0  0  0  0  0  0  0  0  0  0  0  0
    5.9042   -1.6208    0.0000 C   0  0  0  0  0  0  0  0  0  0  0  0
    7.9625   -2.3375    0.0000 C   0  0  0  0  0  0  0  0  0  0  0  0
    7.1333   -0.9083    0.0000 N   0  0  0  0  0  0  0  0  0  0  0  0
    8.3750   -1.6208    0.0000 C   0  0  0  0  0  0  0  0  0  0  0  0
    2.6792   -1.7375    0.0000 C   0  0  0  0  0  0  0  0  0  0  0  0
    7.9583   -0.9042    0.0000 C   0  0  0  0  0  0  0  0  0  0  0  0
    5.9042   -0.1917    0.0000 O   0  0  0  0  0  0  0  0  0  0  0  0
    2.6792   -0.0833    0.0000 C   0  0  0  0  0  0  0  0  0  0  0  0
    1.9667   -1.3250    0.0000 C   0  0  0  0  0  0  0  0  0  0  0  0
    8.3750   -3.0500    0.0000 O   0  0  0  0  0  0  0  0  0  0  0  0
    1.9667   -0.5000    0.0000 C   0  0  0  0  0  0  0  0  0  0  0  0
    6.7208   -3.0500    0.0000 C   0  0  0  0  0  0  0  0  0  0  0  0
    4.9292    0.6583    0.0000 K   0  0  0  0  0 15  0  0  0  0  0  0
    1.2500   -1.7375    0.0000 O   0  0  0  0  0  0  0  0  0  0  0  0
    9.2000   -1.6208    0.0000 C   0  0  0  0  0  0  0  0  0  0  0  0
    7.9625   -3.7667    0.0000 C   0  0  0  0  0  0  0  0  0  0  0  0
    0.5375   -1.3250    0.0000 C   0  0  0  0  0  0  0  0  0  0  0  0
  2  1  1  0
  3  1  2  0
  4  1  1  0
  5  3  1  0
  6  9  1  0
  7  6  2  0
  8  2  1  0
  9  4  1  0
 10  7  1  0
 11  6  1  0
 12 14  1  0
 13  5  2  0
 14 11  2  0
 15  4  2  0
 16  8  2  0
 17 13  1  0
 18 10  1  0
 19 16  1  0
 20  7  1  0
 22 17  1  0
 23 12  1  0
 24 18  1  0
 25 22  1  0
  5  8  1  0
 17 19  2  0
 12 10  2  0
M  CHG  2   2  -1  21   1
M  END
>  <ID>  (1098) 


>  <MOLENAME>  (1098) 
ESOMEPRAZOLE POTASSIUM

>  <therap>  (1098) 
gastric acid secretion inhibitor

>  <ref>  (1098) 
Aliment. Pharmacol. Ther. (2003), 17(4), 481-488; Tet. Assym. (2000), 11(18), 3819-3825; Drugs (2000), 60(2), 321-329

>  <cas#>  (1098) 
161796-84-5

>  <source>  (1098) 
synthetic; H-199/18

>  <status>  (1098) 
USAN, INN, BAN

>  <tradename>  (1098) 
NEXIUM

>  <SMILES>  (1098) 
COc1ccc2[nH]c([S+]([O-])Cc3ncc(C)c(OC)c3C)nc2c1

>  <standardized_failed>  (1098) 
False

$$$$

     RDKit          2D

 29 27  0  0  0  0  0  0  0  0999 V2000
    6.4833   -2.4750    0.0000 S   0  0  0  0  0  0  0  0  0  0  0  0
    6.4792   -1.6500    0.0000 C   0  0  0  0  0  0  0  0  0  0  0  0
    5.7667   -1.2417    0.0000 C   0  0  0  0  0  0  0  0  0  0  0  0
    7.1917   -1.2375    0.0000 C   0  0  0  0  0  0  0  0  0  0  0  0
    5.0542   -1.6542    0.0000 C   0  0  0  0  0  0  0  0  0  0  0  0
    6.4792   -3.2917    0.0000 O   0  0  0  0  0  0  0  0  0  0  0  0
    7.2000   -2.8833    0.0000 O   0  0  0  0  0  0  0  0  0  0  0  0
    5.7708   -2.8875    0.0000 O   0  0  0  0  0  0  0  0  0  0  0  0
    7.9042   -1.6417    0.0000 O   0  0  0  0  0  0  0  0  0  0  0  0
    7.1917   -0.4125    0.0000 O   0  0  0  0  0  0  0  0  0  0  0  0
    5.0583   -2.4792    0.0000 O   0  0  0  0  0  0  0  0  0  0  0  0
    4.3417   -1.2417    0.0000 O   0  0  0  0  0  0  0  0  0  0  0  0
    8.6167   -1.2292    0.0000 C   0  0  0  0  0  0  0  0  0  0  0  0
    3.6292   -1.6583    0.0000 C   0  0  0  0  0  0  0  0  0  0  0  0
    7.3042   -4.1042    0.0000 Na  0  0  0  0  0 15  0  0  0  0  0  0
    9.3292   -1.6417    0.0000 C   0  0  0  0  0  0  0  0  0  0  0  0
    2.9167   -1.2500    0.0000 C   0  0  0  0  0  0  0  0  0  0  0  0
    2.9167   -0.4250    0.0000 C   0  0  0  0  0  0  0  0  0  0  0  0
    9.3333   -2.4667    0.0000 C   0  0  0  0  0  0  0  0  0  0  0  0
   10.0417   -1.2292    0.0000 C   0  0  0  0  0  0  0  0  0  0  0  0
    2.2042   -1.6583    0.0000 C   0  0  0  0  0  0  0  0  0  0  0  0
   11.4667   -1.2250    0.0000 C   0  0  0  0  0  0  0  0  0  0  0  0
    0.7792   -1.6542    0.0000 C   0  0  0  0  0  0  0  0  0  0  0  0
    1.4917   -1.2458    0.0000 C   0  0  0  0  0  0  0  0  0  0  0  0
   10.7542   -1.6375    0.0000 C   0  0  0  0  0  0  0  0  0  0  0  0
    2.2042   -0.0083    0.0000 C   0  0  0  0  0  0  0  0  0  0  0  0
    8.6208   -2.8792    0.0000 C   0  0  0  0  0  0  0  0  0  0  0  0
    0.0667   -1.2417    0.0000 C   0  0  0  0  0  0  0  0  0  0  0  0
   12.1792   -1.6292    0.0000 C   0  0  0  0  0  0  0  0  0  0  0  0
  2  1  1  0
  3  2  1  0
  4  2  1  0
  5  3  1  0
  6  1  1  0
  7  1  2  0
  8  1  2  0
  9  4  1  0
 10  4  2  0
 11  5  2  0
 12  5  1  0
 13  9  1  0
 14 12  1  0
 16 13  1  0
 17 14  1  0
 18 17  1  0
 19 16  1  0
 20 16  1  0
 21 17  1  0
 22 25  1  0
 23 24  1  0
 24 21  1  0
 25 20  1  0
 26 18  1  0
 27 19  1  0
 28 23  1  0
 29 22  1  0
M  CHG  2   6  -1  15   1
M  END
>  <ID>  (1099) 


>  <MOLENAME>  (1099) 
DOCUSATE SODIUM

>  <therap>  (1099) 
stool softener

>  <ref>  (1099) 
J. Colloid Interface Sci. (1971), 37(2), 469-75; Gut (1985), 26(10), 1008-13; Gastroenterology (1985), 89(3), 489-93

>  <cas#>  (1099) 
577-11-7

>  <source>  (1099) 
synthetic

>  <status>  (1099) 
USP

>  <tradename>  (1099) 
COLACE

>  <SMILES>  (1099) 
CCCCC(CC)COC(=O)CC(C(=O)OCC(CC)CCCC)S(=O)(=O)O

>  <standardized_failed>  (1099) 
False

$$$$

     RDKit          2D

 23 25  0  0  0  0  0  0  0  0999 V2000
   -0.4583    0.5333    0.0000 S   0  0  0  0  0  0  0  0  0  0  0  0
   -1.1750    0.1208    0.0000 N   0  0  0  0  0  0  0  0  0  0  0  0
    3.1792    1.6208    0.0000 N   0  0  0  0  0  0  0  0  0  0  0  0
    2.3917    0.5333    0.0000 C   0  0  0  0  0  0  0  0  0  0  0  0
    3.1792    0.2833    0.0000 C   0  0  0  0  0  0  0  0  0  0  0  0
    3.6667    0.9458    0.0000 C   0  0  0  0  0  0  0  0  0  0  0  0
    0.2542    0.1208    0.0000 C   0  0  0  0  0  0  0  0  0  0  0  0
    2.3917    1.3583    0.0000 C   0  0  0  0  0  0  0  0  0  0  0  0
   -0.0083    1.1458    0.0000 O   0  0  0  0  0  0  0  0  0  0  0  0
   -0.9458    1.1708    0.0000 O   0  0  0  0  0  0  0  0  0  0  0  0
    1.6792    0.1208    0.0000 C   0  0  0  0  0  0  0  0  0  0  0  0
    0.9667    0.5333    0.0000 C   0  0  0  0  0  0  0  0  0  0  0  0
    3.4375   -0.5042    0.0000 C   0  0  0  0  0  0  0  0  0  0  0  0
    1.6792    1.7708    0.0000 C   0  0  0  0  0  0  0  0  0  0  0  0
    4.5000   -1.4625    0.0000 N   0  0  0  0  0  0  0  0  0  0  0  0
    4.2417   -0.6792    0.0000 C   0  0  0  0  0  0  0  0  0  0  0  0
    0.9667    1.3583    0.0000 C   0  0  0  0  0  0  0  0  0  0  0  0
   -1.3500   -0.6792    0.0000 C   0  0  0  0  0  0  0  0  0  0  0  0
   -1.8833    0.5333    0.0000 C   0  0  0  0  0  0  0  0  0  0  0  0
    5.3042   -1.6292    0.0000 C   0  0  0  0  0  0  0  0  0  0  0  0
    3.9417   -2.0750    0.0000 C   0  0  0  0  0  0  0  0  0  0  0  0
   -2.4958   -0.0167    0.0000 C   0  0  0  0  0  0  0  0  0  0  0  0
   -2.1625   -0.7625    0.0000 C   0  0  0  0  0  0  0  0  0  0  0  0
  2  1  1  0
  3  8  1  0
  4 11  2  0
  5  4  1  0
  6  5  2  0
  7  1  1  0
  8 14  2  0
  9  1  2  0
 10  1  2  0
 11 12  1  0
 12  7  1  0
 13  5  1  0
 14 17  1  0
 15 16  1  0
 16 13  1  0
 17 12  2  0
 18  2  1  0
 19  2  1  0
 20 15  1  0
 21 15  1  0
 22 19  1  0
 23 18  1  0
 23 22  1  0
  4  8  1  0
  3  6  1  0
M  END
>  <ID>  (1100) 


>  <MOLENAME>  (1100) 
ALMOTRIPTAN

>  <therap>  (1100) 
5HT 1B/2D receptor agonist

>  <ref>  (1100) 
Expert Opin Pharmacother 4:1157 (2003)

>  <cas#>  (1100) 
154323-57-6, 181183-52-8(malate)

>  <source>  (1100) 
synthetic; PNU-180638E, LAS-31416

>  <status>  (1100) 
USAN, INN, BAN

>  <tradename>  (1100) 
AXERT

>  <SMILES>  (1100) 
CN(C)CCc1c[nH]c2ccc(CS(=O)(=O)N3CCCC3)cc12

>  <standardized_failed>  (1100) 
False

$$$$

     RDKit          2D

 23 25  0  0  0  0  0  0  0  0999 V2000
    2.8625   -0.2417    0.0000 C   0  0  0  0  0  0  0  0  0  0  0  0
    3.9667    0.2708    0.0000 C   0  0  0  0  0  0  0  0  0  0  0  0
    3.2500    0.6833    0.0000 O   0  0  0  0  0  0  0  0  0  0  0  0
    3.9875   -0.1542    0.0000 N   0  0  0  0  0  0  0  0  0  0  0  0
    3.8292   -1.6250    0.0000 C   0  0  0  0  0  0  0  0  0  0  0  0
    5.3875    0.2708    0.0000 C   0  0  0  0  0  0  0  0  0  0  0  0
    6.6125   -2.4167    0.0000 C   0  0  0  0  0  0  0  0  0  0  0  0
    7.4375   -2.4167    0.0000 C   0  0  0  0  0  0  0  0  0  0  0  0
    6.1000   -0.1417    0.0000 C   0  0  0  0  0  0  0  0  0  0  0  0
    5.0792   -0.8917    0.0000 C   0  0  0  0  0  0  0  0  0  0  0  0
    6.2000   -0.8792    0.0000 C   0  0  0  0  0  0  0  0  0  0  0  0
    6.2000   -1.7042    0.0000 O   0  0  0  0  0  0  0  0  0  0  0  0
    6.2000   -3.1375    0.0000 O   0  0  0  0  0  0  0  0  0  0  0  0
    7.8500   -1.7042    0.0000 C   0  0  0  0  0  0  0  0  0  0  0  0
    5.1750   -0.5000    0.0000 C   0  0  0  0  0  0  0  0  0  0  0  0
    7.9500   -2.9542    0.0000 C   0  0  0  0  0  0  0  0  0  0  0  0
    7.3250    1.4500    0.0000 Br  0  0  0  0  0  0  0  0  0  0  0  0
    7.9875   -3.8917    0.0000 O   0  0  0  0  0  0  0  0  0  0  0  0
    7.4375   -0.9917    0.0000 C   0  0  0  0  0  0  0  0  0  0  0  0
    8.6750   -1.7042    0.0000 C   0  0  0  0  0  0  0  0  0  0  0  0
    7.8500   -0.2750    0.0000 C   0  0  0  0  0  0  0  0  0  0  0  0
    9.0875   -0.9917    0.0000 C   0  0  0  0  0  0  0  0  0  0  0  0
    8.6750   -0.2750    0.0000 C   0  0  0  0  0  0  0  0  0  0  0  0
  2  1  1  0
  1  3  1  1
  4  5  1  0
  5  1  1  0
  6  2  1  0
  7 12  1  0
  8  7  1  0
  9  6  1  0
  5 10  1  1
 11 10  1  0
 11 12  1  6
 13  7  2  0
 14  8  1  0
 15  4  1  0
  8 16  1  1
 18 16  1  0
 19 14  2  0
 20 14  1  0
 21 19  1  0
 22 20  2  0
 23 21  2  0
  2  3  1  0
  4  6  1  0
  9 11  1  0
 22 23  1  0
M  END
>  <ID>  (1101) 


>  <MOLENAME>  (1101) 
SCOPOLAMINE HYDROBROMIDE

>  <therap>  (1101) 
anticholinergic, treatment of motion sickness

>  <ref>  (1101) 
Arch Int Pharmacodyn ther 180:155 (1969); Biol Psychiatry 3:347 (1971); Drugs 29:189 (1995)

>  <cas#>  (1101) 
6533-68-2, 114-49-8 [anhydrous], 51-34-3 [scopolamine]

>  <source>  (1101) 
Scopolia, Datura, Atropa spp

>  <status>  (1101) 
USP, BAN, JAN

>  <tradename>  (1101) 
ISOPTOHYOSCINE

>  <SMILES>  (1101) 
CN1C2C[C@H](OC(=O)[C@H](CO)c3ccccc3)C[C@H]1[C@H]1OC21

>  <standardized_failed>  (1101) 
False

$$$$

     RDKit          2D

 31 33  0  0  0  0  0  0  0  0999 V2000
    2.5792   -2.2125    0.0000 N   0  0  0  0  0  0  0  0  0  0  0  0
    2.4042   -1.4042    0.0000 C   0  0  0  0  0  0  0  0  0  0  0  0
    3.2917   -2.6250    0.0000 C   0  0  0  0  0  0  0  0  0  0  0  0
    1.8625   -2.6167    0.0000 C   0  0  0  0  0  0  0  0  0  0  0  0
    1.5917   -1.3167    0.0000 C   0  0  0  0  0  0  0  0  0  0  0  0
    2.9625   -0.7917    0.0000 C   0  0  0  0  0  0  0  0  0  0  0  0
    4.7167   -2.6250    0.0000 N   0  0  0  0  0  0  0  0  0  0  0  0
    1.2500   -2.0625    0.0000 C   0  0  0  0  0  0  0  0  0  0  0  0
    4.0042   -2.2125    0.0000 C   0  0  0  0  0  0  0  0  0  0  0  0
    5.4292   -1.3875    0.0000 C   0  0  0  0  0  0  0  0  0  0  0  0
    5.4292   -2.2125    0.0000 C   0  0  0  0  0  0  0  0  0  0  0  0
    3.2917   -3.4500    0.0000 O   0  0  0  0  0  0  0  0  0  0  0  0
    2.7125   -0.0042    0.0000 O   0  0  0  0  0  0  0  0  0  0  0  0
    4.7125   -0.9750    0.0000 O   0  0  0  0  0  0  0  0  0  0  0  0
    6.1417   -2.6250    0.0000 C   0  0  0  0  0  0  0  0  0  0  0  0
    3.8292   -0.7792    0.0000 O   0  0  0  0  0  0  0  0  0  0  0  0
    6.1417   -0.9750    0.0000 O   0  0  0  0  0  0  0  0  0  0  0  0
    6.8542   -2.2125    0.0000 C   0  0  0  0  0  0  0  0  0  0  0  0
    7.5667   -2.6167    0.0000 C   0  0  0  0  0  0  0  0  0  0  0  0
    1.6917   -3.4250    0.0000 C   0  0  0  0  0  0  0  0  0  0  0  0
    0.4667   -2.3125    0.0000 C   0  0  0  0  0  0  0  0  0  0  0  0
    4.0042   -1.3875    0.0000 C   0  0  0  0  0  0  0  0  0  0  0  0
    6.1417   -0.1500    0.0000 C   0  0  0  0  0  0  0  0  0  0  0  0
    7.5625   -3.4375    0.0000 C   0  0  0  0  0  0  0  0  0  0  0  0
    8.2792   -2.2125    0.0000 C   0  0  0  0  0  0  0  0  0  0  0  0
    0.9000   -3.6750    0.0000 C   0  0  0  0  0  0  0  0  0  0  0  0
    0.2875   -3.1167    0.0000 C   0  0  0  0  0  0  0  0  0  0  0  0
    6.8542    0.2625    0.0000 C   0  0  0  0  0  0  0  0  0  0  0  0
    8.2750   -3.8500    0.0000 C   0  0  0  0  0  0  0  0  0  0  0  0
    8.9792   -2.6167    0.0000 C   0  0  0  0  0  0  0  0  0  0  0  0
    8.9875   -3.4375    0.0000 C   0  0  0  0  0  0  0  0  0  0  0  0
  2  1  1  0
  3  1  1  0
  4  1  1  0
  5  2  1  0
  2  6  1  1
  7  9  1  0
  8  4  1  0
  9  3  1  0
 11 10  1  0
 11  7  1  0
 12  3  2  0
 13  6  2  0
 14 10  2  0
 11 15  1  6
 16  6  1  0
 17 10  1  0
 18 15  1  0
 19 18  1  0
 20  4  1  0
 21  8  1  0
  9 22  1  1
 23 17  1  0
 24 19  2  0
 25 19  1  0
 26 20  1  0
 27 26  1  0
 28 23  1  0
 29 24  1  0
 30 25  2  0
 31 30  1  0
  5  8  1  0
 21 27  1  0
 29 31  2  0
M  END
>  <ID>  (1102) 


>  <MOLENAME>  (1102) 
TRANDOLAPRIL

>  <therap>  (1102) 
antihypertensive, ACE inhibitor

>  <ref>  (1102) 
Am J Hypertens 8:63S (1995); Lancet 352:1978 (1998)

>  <cas#>  (1102) 
87679-37-6

>  <source>  (1102) 
synthetic; RU-44570

>  <status>  (1102) 
USAN, INN, BAN

>  <tradename>  (1102) 
MAVIK

>  <SMILES>  (1102) 
CCOC(=O)[C@H](CCc1ccccc1)N[C@H](C)C(=O)N1C2CCCCC2C[C@H]1C(=O)O

>  <standardized_failed>  (1102) 
False

$$$$

     RDKit          2D

 20 20  0  0  0  0  0  0  0  0999 V2000
    5.5667   -3.9375    0.0000 C   0  0  0  0  0  0  0  0  0  0  0  0
    6.2167   -3.5625    0.0000 C   0  0  0  0  0  0  0  0  0  0  0  0
    6.8667   -4.6875    0.0000 C   0  0  0  0  0  0  0  0  0  0  0  0
    6.8667   -3.9375    0.0000 C   0  0  0  0  0  0  0  0  0  0  0  0
    5.5667   -4.6875    0.0000 C   0  0  0  0  0  0  0  0  0  0  0  0
    6.2167   -5.0625    0.0000 C   0  0  0  0  0  0  0  0  0  0  0  0
    7.5167   -5.8167    0.0000 C   0  0  0  0  0  0  0  0  0  0  0  0
    8.0792   -6.3250    0.0000 N   0  0  0  0  0  0  0  0  0  0  0  0
    4.9167   -3.5542    0.0000 C   0  0  0  0  0  0  0  0  0  0  0  0
    7.5167   -5.0667    0.0000 C   0  0  0  0  0  0  0  0  0  0  0  0
    6.8667   -6.1917    0.0000 N   0  0  0  0  0  0  0  0  0  0  0  0
    6.2167   -2.8125    0.0000 O   0  0  0  0  0  0  0  0  0  0  0  0
    8.6667   -5.3667    0.0000 Cl  0  0  0  0  0  0  0  0  0  0  0  0
    7.5167   -3.5625    0.0000 C   0  0  0  0  0  0  0  0  0  0  0  0
    7.7667   -7.0042    0.0000 C   0  0  0  0  0  0  0  0  0  0  0  0
    6.2167   -5.8167    0.0000 C   0  0  0  0  0  0  0  0  0  0  0  0
    7.0292   -6.9292    0.0000 C   0  0  0  0  0  0  0  0  0  0  0  0
    4.5292   -4.2125    0.0000 C   0  0  0  0  0  0  0  0  0  0  0  0
    4.2542   -3.1750    0.0000 C   0  0  0  0  0  0  0  0  0  0  0  0
    5.2917   -2.9000    0.0000 C   0  0  0  0  0  0  0  0  0  0  0  0
  2  1  2  0
  3  6  1  0
  4  2  1  0
  5  1  1  0
  6  5  2  0
  7 10  1  0
  8  7  2  0
  9  1  1  0
 10  3  1  0
 11  7  1  0
 12  2  1  0
 14  4  1  0
 15  8  1  0
 16  6  1  0
 17 11  1  0
 18  9  1  0
 19  9  1  0
 20  9  1  0
  4  3  2  0
 15 17  1  0
M  END
>  <ID>  (1103) 


>  <MOLENAME>  (1103) 
OXYMETAZOLINE HYDROCHLORIDE

>  <therap>  (1103) 
adrenergic agonist, nasal decongestant

>  <ref>  (1103) 
Eur. J. Pharmacol. (1999), 374(1), 137-46; Naunyn-Schmiedeberg's Arch. Pharmacol. (1982), 320(2), 170-4; J. Asthma Res. (1969), 7(2), 65-73

>  <cas#>  (1103) 
2315-02-8, 1491-59-4 [oxymetazoline]

>  <source>  (1103) 
synthetic; Sch-9384

>  <status>  (1103) 
USP, INN, BAN, JAN

>  <tradename>  (1103) 
VISINE

>  <SMILES>  (1103) 
Cc1cc(C(C)(C)C)c(O)c(C)c1CC1=NCCN1

>  <standardized_failed>  (1103) 
False

$$$$

     RDKit          2D

 34 36  0  0  0  0  0  0  0  0999 V2000
    6.8667   -4.2917    0.0000 C   0  0  0  0  0  0  0  0  0  0  0  0
    5.4375   -4.2917    0.0000 C   0  0  0  0  0  0  0  0  0  0  0  0
    6.8667   -5.1167    0.0000 C   0  0  0  0  0  0  0  0  0  0  0  0
    8.3000   -4.2917    0.0000 C   0  0  0  0  0  0  0  0  0  0  0  0
    6.1542   -3.8792    0.0000 C   0  0  0  0  0  0  0  0  0  0  0  0
    5.4375   -5.1167    0.0000 C   0  0  0  0  0  0  0  0  0  0  0  0
    7.5792   -3.8792    0.0000 C   0  0  0  0  0  0  0  0  0  0  0  0
    8.3000   -5.1167    0.0000 C   0  0  0  0  0  0  0  0  0  0  0  0
    4.7250   -3.8792    0.0000 C   0  0  0  0  0  0  0  0  0  0  0  0
    4.7250   -5.5292    0.0000 C   0  0  0  0  0  0  0  0  0  0  0  0
    7.5792   -5.5292    0.0000 C   0  0  0  0  0  0  0  0  0  0  0  0
    6.1542   -5.5292    0.0000 C   0  0  0  0  0  0  0  0  0  0  0  0
    4.0125   -4.2917    0.0000 C   0  0  0  0  0  0  0  0  0  0  0  0
    4.0125   -5.1167    0.0000 C   0  0  0  0  0  0  0  0  0  0  0  0
    9.0167   -3.8792    0.0000 C   0  0  0  0  0  0  0  0  0  0  0  0
    7.5792   -6.3542    0.0000 N   0  0  0  0  0  0  0  0  0  0  0  0
    7.5792   -3.0542    0.0000 O   0  0  0  0  0  0  0  0  0  0  0  0
    4.7250   -3.0542    0.0000 O   0  0  0  0  0  0  0  0  0  0  0  0
    3.3000   -3.8792    0.0000 C   0  0  0  0  0  0  0  0  0  0  0  0
    6.8667   -3.4625    0.0000 O   0  0  0  0  0  0  0  0  0  0  0  0
    9.7292   -4.2917    0.0000 O   0  0  0  0  0  0  0  0  0  0  0  0
    6.1542   -3.0542    0.0000 O   0  0  0  0  0  0  0  0  0  0  0  0
    9.0167   -5.5375    0.0000 O   0  0  0  0  0  0  0  0  0  0  0  0
    4.9500   -6.2542    0.0000 O   0  0  0  0  0  0  0  0  0  0  0  0
    6.1542   -6.3542    0.0000 O   0  0  0  0  0  0  0  0  0  0  0  0
    9.0250   -3.0542    0.0000 N   0  0  0  0  0  0  0  0  0  0  0  0
    4.1125   -6.0792    0.0000 C   0  0  0  0  0  0  0  0  0  0  0  0
    3.3000   -5.5292    0.0000 C   0  0  0  0  0  0  0  0  0  0  0  0
    3.3000   -3.0542    0.0000 O   0  0  0  0  0  0  0  0  0  0  0  0
    9.6375   -6.3417    0.0000 Cl  0  0  0  0  0  0  0  0  0  0  0  0
    2.5792   -5.1167    0.0000 C   0  0  0  0  0  0  0  0  0  0  0  0
    2.5792   -4.2917    0.0000 C   0  0  0  0  0  0  0  0  0  0  0  0
    6.8667   -6.7667    0.0000 C   0  0  0  0  0  0  0  0  0  0  0  0
    8.3000   -6.7667    0.0000 C   0  0  0  0  0  0  0  0  0  0  0  0
  2  5  2  0
  3  1  1  0
  4  7  1  0
  5  1  1  0
  6  2  1  6
  7  1  1  0
  8  4  2  0
  9  2  1  0
 10  6  1  0
  3 11  1  6
  3 12  1  0
 13  9  1  0
 14 13  2  0
 15  4  1  0
 11 16  1  1
 17  7  2  0
 18  9  2  0
 19 13  1  0
  1 20  1  1
 21 15  2  0
 22  5  1  0
 23  8  1  0
 10 24  1  0
 12 25  1  1
 26 15  1  0
 10 27  1  1
 28 14  1  0
 29 19  1  0
 31 32  1  0
 32 19  2  0
 33 16  1  0
 34 16  1  0
  6 12  1  0
  8 11  1  0
 10 14  1  0
 31 28  2  0
M  END
>  <ID>  (1104) 


>  <MOLENAME>  (1104) 
OXYTETRACYCLINE

>  <therap>  (1104) 
antibacterial

>  <ref>  (1104) 
Br J Ophthalmol 66:386 (1982); 79:42 (1995)

>  <cas#>  (1104) 
6153-64-6, 79-57-2 [anhydrous]

>  <source>  (1104) 
Streptomyces rimosus

>  <status>  (1104) 
USP, INN, BAN, JAN

>  <tradename>  (1104) 
TERRAMYCIN

>  <SMILES>  (1104) 
CN(C)[C@@H]1C(O)=C(C(N)=O)C(=O)[C@@]2(O)C(O)=C3C(=O)c4c(cccc4O)[C@@](C)(O)[C@H]3[C@H](O)[C@@H]12

>  <standardized_failed>  (1104) 
False

$$$$

     RDKit          2D

 26 27  0  0  0  0  0  0  0  0999 V2000
    6.8167   -5.6542    0.0000 C   0  0  0  0  0  0  0  0  0  0  0  0
    7.4667   -5.2792    0.0000 C   0  0  0  0  0  0  0  0  0  0  0  0
    6.1667   -5.2792    0.0000 C   0  0  0  0  0  0  0  0  0  0  0  0
    6.8167   -6.4042    0.0000 C   0  0  0  0  0  0  0  0  0  0  0  0
    5.5167   -5.6542    0.0000 C   0  0  0  0  0  0  0  0  0  0  0  0
    5.5167   -6.4042    0.0000 C   0  0  0  0  0  0  0  0  0  0  0  0
    6.1667   -6.7792    0.0000 C   0  0  0  0  0  0  0  0  0  0  0  0
    8.1167   -5.6542    0.0000 N   0  0  0  0  0  0  0  0  0  0  0  0
    5.5167   -4.1542    0.0000 C   0  0  0  0  0  0  0  0  0  0  0  0
    7.4667   -4.5292    0.0000 C   0  0  0  0  0  0  0  0  0  0  0  0
    5.5167   -3.4042    0.0000 C   0  0  0  0  0  0  0  0  0  0  0  0
    6.1667   -4.5292    0.0000 C   0  0  0  0  0  0  0  0  0  0  0  0
    6.8167   -4.1542    0.0000 C   0  0  0  0  0  0  0  0  0  0  0  0
    6.1667   -3.0292    0.0000 C   0  0  0  0  0  0  0  0  0  0  0  0
    6.8167   -3.4042    0.0000 C   0  0  0  0  0  0  0  0  0  0  0  0
    8.1167   -6.4042    0.0000 C   0  0  0  0  0  0  0  0  0  0  0  0
    4.8667   -5.2750    0.0000 O   0  0  0  0  0  0  0  0  0  0  0  0
    4.8667   -6.7792    0.0000 O   0  0  0  0  0  0  0  0  0  0  0  0
    4.8667   -4.5292    0.0000 O   0  0  0  0  0  0  0  0  0  0  0  0
    9.2000   -5.2167    0.0000 Cl  0  0  0  0  0  0  0  0  0  0  0  0
    4.8542   -3.0292    0.0000 O   0  0  0  0  0  0  0  0  0  0  0  0
    7.4667   -6.7792    0.0000 C   0  0  0  0  0  0  0  0  0  0  0  0
    4.8667   -7.5292    0.0000 C   0  0  0  0  0  0  0  0  0  0  0  0
    4.2167   -5.6500    0.0000 C   0  0  0  0  0  0  0  0  0  0  0  0
    4.2167   -4.1542    0.0000 C   0  0  0  0  0  0  0  0  0  0  0  0
    4.8542   -2.2750    0.0000 C   0  0  0  0  0  0  0  0  0  0  0  0
  2  1  1  0
  3  1  2  0
  4  1  1  0
  5  3  1  0
  6  7  1  0
  7  4  2  0
  8  2  2  0
  9 12  2  0
 10  2  1  0
 11 14  2  0
 12 13  1  0
 13 10  1  0
 14 15  1  0
 15 13  2  0
 16 22  2  0
 17  5  1  0
 18  6  1  0
 19  9  1  0
 21 11  1  0
 22  4  1  0
 23 18  1  0
 24 17  1  0
 25 19  1  0
 26 21  1  0
 16  8  1  0
  6  5  2  0
 11  9  1  0
M  END
>  <ID>  (1105) 


>  <MOLENAME>  (1105) 
PAPAVERINE HYDROCHLORIDE

>  <therap>  (1105) 
muscle relaxant (smooth), cerebral vasodilator

>  <ref>  (1105) 
N Eng J Med 281:1333, 1364 (1969);  Postgrad Med J 56:488 (1980)

>  <cas#>  (1105) 
61-25-6, 58-74-2 [papaverine]

>  <source>  (1105) 
Papaver somniferum, Rauwolfia serpentina

>  <status>  (1105) 
USP, BAN, JAN

>  <tradename>  (1105) 
PAVABID

>  <SMILES>  (1105) 
COc1ccc(Cc2nccc3cc(OC)c(OC)cc23)cc1OC

>  <standardized_failed>  (1105) 
False

$$$$

     RDKit          2D

 13 12  0  0  0  0  0  0  0  0999 V2000
    5.9875   -5.8750    0.0000 C   0  0  0  0  0  0  0  0  0  0  0  0
    5.2375   -5.8750    0.0000 C   0  0  0  0  0  0  0  0  0  0  0  0
    7.1125   -5.2250    0.0000 N   0  0  0  0  0  0  0  0  0  0  0  0
    6.7375   -4.5792    0.0000 C   0  0  0  0  0  0  0  0  0  0  0  0
    6.7375   -5.8750    0.0000 C   0  0  0  0  0  0  0  0  0  0  0  0
    7.9792   -4.3667    0.0000 Cl  0  0  0  0  0  0  0  0  0  0  0  0
    5.9875   -4.5792    0.0000 C   0  0  0  0  0  0  0  0  0  0  0  0
    7.8625   -5.2250    0.0000 C   0  0  0  0  0  0  0  0  0  0  0  0
    5.6125   -5.2250    0.0000 C   0  0  0  0  0  0  0  0  0  0  0  0
    5.6167   -3.9292    0.0000 C   0  0  0  0  0  0  0  0  0  0  0  0
    4.8625   -5.2250    0.0000 C   0  0  0  0  0  0  0  0  0  0  0  0
    4.8625   -3.9292    0.0000 C   0  0  0  0  0  0  0  0  0  0  0  0
    4.4875   -4.5792    0.0000 C   0  0  0  0  0  0  0  0  0  0  0  0
  2  1  3  0
  3  5  1  0
  4  3  1  0
  5  1  1  0
  7  4  1  0
  8  3  1  0
  9  7  2  0
 10  7  1  0
 11  9  1  0
 12 10  2  0
 13 11  2  0
 12 13  1  0
M  END
>  <ID>  (1106) 


>  <MOLENAME>  (1106) 
PARGYLINE HYDROCHLORIDE

>  <therap>  (1106) 
antihypertensive

>  <ref>  (1106) 
Ann NY Acad Sci 107:958 (1963); Br J Pharnmac 47:719 (1973); Nephrol Dial Transplant 26:489 (2011)

>  <cas#>  (1106) 
306-07-0, 555-57-7 [pargyline]

>  <source>  (1106) 
synthetic; A-19120, MO-911

>  <status>  (1106) 
USAN, INN, BAN

>  <tradename>  (1106) 
EUTONYL

>  <SMILES>  (1106) 
C#CCN(C)Cc1ccccc1

>  <standardized_failed>  (1106) 
False

$$$$

     RDKit          2D

 17 17  0  0  0  0  0  0  0  0999 V2000
    4.8250    0.8125    0.0000 C   0  0  0  0  0  0  0  0  0  0  0  0
    4.8250   -0.0167    0.0000 C   0  0  0  0  0  0  0  0  0  0  0  0
    5.5375    1.2292    0.0000 C   0  0  0  0  0  0  0  0  0  0  0  0
    4.1083   -0.4292    0.0000 C   0  0  0  0  0  0  0  0  0  0  0  0
    4.1083    1.2250    0.0000 C   0  0  0  0  0  0  0  0  0  0  0  0
    1.9667   -0.0167    0.0000 C   0  0  0  0  0  0  0  0  0  0  0  0
    2.6792   -0.4292    0.0000 N   0  0  0  0  0  0  0  0  0  0  0  0
    3.3958   -0.0167    0.0000 C   0  0  0  0  0  0  0  0  0  0  0  0
    5.5333    2.0542    0.0000 O   0  0  0  0  0  0  0  0  0  0  0  0
    1.9667    0.8083    0.0000 O   0  0  0  0  0  0  0  0  0  0  0  0
    3.3958    0.8125    0.0000 C   0  0  0  0  0  0  0  0  0  0  0  0
    5.5417   -0.4292    0.0000 O   0  0  0  0  0  0  0  0  0  0  0  0
    6.2542    0.8208    0.0000 O   0  0  0  0  0  0  0  0  0  0  0  0
    1.2500   -0.4292    0.0000 C   0  0  0  0  0  0  0  0  0  0  0  0
    5.5417   -1.2542    0.0000 C   0  0  0  0  0  0  0  0  0  0  0  0
    6.9667    1.2333    0.0000 C   0  0  0  0  0  0  0  0  0  0  0  0
    6.2583   -1.6625    0.0000 C   0  0  0  0  0  0  0  0  0  0  0  0
  2  1  2  0
  3  1  1  0
  4  2  1  0
  5  1  1  0
  6  7  1  0
  7  8  1  0
  8 11  1  0
  9  3  2  0
 10  6  2  0
 11  5  2  0
 12  2  1  0
 13  3  1  0
 14  6  1  0
 15 12  1  0
 16 13  1  0
 17 15  1  0
  4  8  2  0
M  END
>  <ID>  (1107) 


>  <MOLENAME>  (1107) 
ETHOPABATE

>  <therap>  (1107) 
folate metabolic inhibitor, coccidiostat

>  <ref>  (1107) 
Acta Vet. Brno (1969), 38(1), 137-45; J. Protozool. (1967), 14(3), 379-81; Poultry Sci. (1967), 46(2), 391-6

>  <cas#>  (1107) 
59-06-3

>  <source>  (1107) 
synthetic

>  <status>  (1107) 
USP, BAN

>  <tradename>  (1107) 
nan

>  <SMILES>  (1107) 
CCOc1c(C(=O)OC)ccc(NC(C)=O)c1

>  <standardized_failed>  (1107) 
False

$$$$

     RDKit          2D

 17 17  0  0  0  0  0  0  0  0999 V2000
    5.2042   -3.0292    0.0000 N   0  0  0  0  0  0  0  0  0  0  0  0
    5.8542   -3.4042    0.0000 C   0  0  0  0  0  0  0  0  0  0  0  0
    5.8542   -4.1542    0.0000 C   0  0  0  0  0  0  0  0  0  0  0  0
    6.5125   -4.5417    0.0000 N   0  0  0  0  0  0  0  0  0  0  0  0
    6.5125   -5.2917    0.0000 N   0  0  0  0  0  0  0  0  0  0  0  0
    4.5625   -3.4042    0.0000 C   0  0  0  0  0  0  0  0  0  0  0  0
    5.2042   -4.5292    0.0000 C   0  0  0  0  0  0  0  0  0  0  0  0
    6.5125   -3.0292    0.0000 N   0  0  0  0  0  0  0  0  0  0  0  0
    4.5625   -4.1542    0.0000 C   0  0  0  0  0  0  0  0  0  0  0  0
    3.9042   -3.0292    0.0000 N   0  0  0  0  0  0  0  0  0  0  0  0
    7.1542   -5.6667    0.0000 C   0  0  0  0  0  0  0  0  0  0  0  0
    7.6667   -3.0917    0.0000 Cl  0  0  0  0  0  0  0  0  0  0  0  0
    7.1542   -6.4167    0.0000 C   0  0  0  0  0  0  0  0  0  0  0  0
    7.8000   -5.2917    0.0000 C   0  0  0  0  0  0  0  0  0  0  0  0
    8.4500   -5.6667    0.0000 C   0  0  0  0  0  0  0  0  0  0  0  0
    7.8000   -6.7917    0.0000 C   0  0  0  0  0  0  0  0  0  0  0  0
    8.4500   -6.4167    0.0000 C   0  0  0  0  0  0  0  0  0  0  0  0
  2  1  2  0
  3  2  1  0
  4  3  1  0
  5  4  2  0
  6  1  1  0
  7  9  1  0
  8  2  1  0
  9  6  2  0
 10  6  1  0
 11  5  1  0
 13 11  2  0
 14 11  1  0
 15 14  2  0
 16 13  1  0
 17 16  2  0
  7  3  2  0
 15 17  1  0
M  END
>  <ID>  (1108) 


>  <MOLENAME>  (1108) 
PHENAZOPYRIDINE HYDROCHLORIDE

>  <therap>  (1108) 
analgesic

>  <ref>  (1108) 
J Med Genet 20:307 (1983); Am J Med 91:315 (1991); Ann Pharmacother 39:1128 (2005)

>  <cas#>  (1108) 
136-40-3, 94-78-0 [phenazopyridine]

>  <source>  (1108) 
synthetic; NC-150, W-1655

>  <status>  (1108) 
USP, INN, BAN

>  <tradename>  (1108) 
PYRIDIUM

>  <SMILES>  (1108) 
Nc1ccc(/N=N/c2ccccc2)c(N)n1

>  <standardized_failed>  (1108) 
False

$$$$

     RDKit          2D

 15 14  0  0  0  0  0  0  0  0999 V2000
    7.7875   -7.1667    0.0000 S   0  0  0  0  0  0  0  0  0  0  0  0
    7.1792   -7.1667    0.0000 O   0  0  0  0  0  0  0  0  0  0  0  0
    7.7875   -6.5375    0.0000 O   0  0  0  0  0  0  0  0  0  0  0  0
    8.3917   -7.1667    0.0000 O   0  0  0  0  0  0  0  0  0  0  0  0
    7.7875   -7.7917    0.0000 O   0  0  0  0  0  0  0  0  0  0  0  0
    6.5792   -6.7042    0.0000 N   0  0  0  0  0  0  0  0  0  0  0  0
    6.5792   -5.9542    0.0000 N   0  0  0  0  0  0  0  0  0  0  0  0
    5.2792   -8.2042    0.0000 C   0  0  0  0  0  0  0  0  0  0  0  0
    5.9375   -7.0792    0.0000 C   0  0  0  0  0  0  0  0  0  0  0  0
    5.9375   -7.8292    0.0000 C   0  0  0  0  0  0  0  0  0  0  0  0
    5.2792   -8.9542    0.0000 C   0  0  0  0  0  0  0  0  0  0  0  0
    4.6292   -7.8292    0.0000 C   0  0  0  0  0  0  0  0  0  0  0  0
    4.6292   -9.3292    0.0000 C   0  0  0  0  0  0  0  0  0  0  0  0
    3.9875   -8.2042    0.0000 C   0  0  0  0  0  0  0  0  0  0  0  0
    3.9875   -8.9542    0.0000 C   0  0  0  0  0  0  0  0  0  0  0  0
  2  1  2  0
  3  1  2  0
  4  1  1  0
  5  1  1  0
  7  6  1  0
  8 10  1  0
  9  6  1  0
 10  9  1  0
 11  8  2  0
 12  8  1  0
 13 11  1  0
 14 12  2  0
 15 14  1  0
 13 15  2  0
M  END
>  <ID>  (1109) 


>  <MOLENAME>  (1109) 
PHENELZINE SULFATE

>  <therap>  (1109) 
antidepressant

>  <ref>  (1109) 
Ann NY Acad Sci 107:899 (1963); Anal Profiles Drug Subs 2:383 (1973)

>  <cas#>  (1109) 
156-51-4, 51-71-8 [phenelzine]

>  <source>  (1109) 
synthetic

>  <status>  (1109) 
USP, INN, BAN

>  <tradename>  (1109) 
NARDIL

>  <SMILES>  (1109) 
NNCCc1ccccc1

>  <standardized_failed>  (1109) 
False

$$$$

     RDKit          2D

 20 21  0  0  0  0  0  0  0  0999 V2000
    7.7292   -7.0167    0.0000 N   0  0  0  0  0  0  0  0  0  0  0  0
    7.1667   -7.6292    0.0000 C   0  0  0  0  0  0  0  0  0  0  0  0
    6.4167   -7.2792    0.0000 C   0  0  0  0  0  0  0  0  0  0  0  0
    7.3292   -6.3042    0.0000 C   0  0  0  0  0  0  0  0  0  0  0  0
    6.5167   -6.4625    0.0000 N   0  0  0  0  0  0  0  0  0  0  0  0
    7.3292   -8.4500    0.0000 O   0  0  0  0  0  0  0  0  0  0  0  0
    7.6792   -5.5417    0.0000 O   0  0  0  0  0  0  0  0  0  0  0  0
    5.6292   -7.0667    0.0000 C   0  0  0  0  0  0  0  0  0  0  0  0
    6.2042   -8.0792    0.0000 C   0  0  0  0  0  0  0  0  0  0  0  0
    8.6375   -6.1792    0.0000 Na  0  0  0  0  0 15  0  0  0  0  0  0
    5.4167   -6.2792    0.0000 C   0  0  0  0  0  0  0  0  0  0  0  0
    5.4167   -8.2917    0.0000 C   0  0  0  0  0  0  0  0  0  0  0  0
    6.7875   -8.6667    0.0000 C   0  0  0  0  0  0  0  0  0  0  0  0
    5.0542   -7.6500    0.0000 C   0  0  0  0  0  0  0  0  0  0  0  0
    5.2000   -9.0875    0.0000 C   0  0  0  0  0  0  0  0  0  0  0  0
    6.5750   -9.4542    0.0000 C   0  0  0  0  0  0  0  0  0  0  0  0
    4.2667   -7.4375    0.0000 C   0  0  0  0  0  0  0  0  0  0  0  0
    4.6167   -6.0667    0.0000 C   0  0  0  0  0  0  0  0  0  0  0  0
    5.7750   -9.6667    0.0000 C   0  0  0  0  0  0  0  0  0  0  0  0
    4.0542   -6.6375    0.0000 C   0  0  0  0  0  0  0  0  0  0  0  0
  2  1  1  0
  3  2  1  0
  4  1  1  0
  5  4  1  0
  6  2  2  0
  7  4  2  0
  8  3  1  0
  9  3  1  0
 11  8  2  0
 12  9  2  0
 13  9  1  0
 14  8  1  0
 15 12  1  0
 16 13  2  0
 17 14  2  0
 18 11  1  0
 19 16  1  0
 20 18  2  0
  3  5  1  0
 15 19  2  0
 17 20  1  0
M  CHG  2   1  -1  10   1
M  END
>  <ID>  (1110) 


>  <MOLENAME>  (1110) 
PHENYTOIN SODIUM

>  <therap>  (1110) 
anticonvulsant, antieleptic

>  <ref>  (1110) 
Arzneim Forsch 4:723 (1954); Prog Cardiovasc Dis 12:1 (1969)

>  <cas#>  (1110) 
630-93-3, 57-41-0 [phenytoin]

>  <source>  (1110) 
synthetic

>  <status>  (1110) 
USP, JAN

>  <tradename>  (1110) 
DILANTIN

>  <SMILES>  (1110) 
O=C1NC(=O)C(c2ccccc2)(c2ccccc2)N1

>  <standardized_failed>  (1110) 
False

$$$$

     RDKit          2D

 26 26  0  0  0  0  0  0  0  0999 V2000
    7.8667   -7.2125    0.0000 C   0  0  0  0  0  0  0  0  0  0  0  0
    7.8667   -5.7125    0.0000 C   0  0  0  0  0  0  0  0  0  0  0  0
    7.2250   -6.8375    0.0000 C   0  0  0  0  0  0  0  0  0  0  0  0
    7.2250   -6.0875    0.0000 C   0  0  0  0  0  0  0  0  0  0  0  0
    5.5167   -8.0667    0.0000 C   0  0  0  0  0  0  0  0  0  0  0  0
    6.1667   -8.4417    0.0000 C   0  0  0  0  0  0  0  0  0  0  0  0
    4.2167   -8.0750    0.0000 N   0  0  0  0  0  0  0  0  0  0  0  0
    4.8667   -8.4500    0.0000 C   0  0  0  0  0  0  0  0  0  0  0  0
    7.8667   -7.9625    0.0000 O   0  0  0  0  0  0  0  0  0  0  0  0
    7.8667   -4.9667    0.0000 O   0  0  0  0  0  0  0  0  0  0  0  0
    5.5167   -7.3167    0.0000 C   0  0  0  0  0  0  0  0  0  0  0  0
    6.1667   -9.1917    0.0000 C   0  0  0  0  0  0  0  0  0  0  0  0
    6.8167   -9.5667    0.0000 N   0  0  0  0  0  0  0  0  0  0  0  0
    8.5167   -6.8375    0.0000 O   0  0  0  0  0  0  0  0  0  0  0  0
    8.5167   -6.0875    0.0000 O   0  0  0  0  0  0  0  0  0  0  0  0
    3.5667   -8.4500    0.0000 C   0  0  0  0  0  0  0  0  0  0  0  0
    4.8667   -9.2000    0.0000 C   0  0  0  0  0  0  0  0  0  0  0  0
    4.8667   -6.9417    0.0000 C   0  0  0  0  0  0  0  0  0  0  0  0
    6.1667   -6.9417    0.0000 C   0  0  0  0  0  0  0  0  0  0  0  0
    6.8167  -10.3167    0.0000 C   0  0  0  0  0  0  0  0  0  0  0  0
    7.4625   -9.1917    0.0000 C   0  0  0  0  0  0  0  0  0  0  0  0
    3.5667   -9.2000    0.0000 C   0  0  0  0  0  0  0  0  0  0  0  0
    4.8667   -6.1917    0.0000 C   0  0  0  0  0  0  0  0  0  0  0  0
    4.2167   -9.5750    0.0000 C   0  0  0  0  0  0  0  0  0  0  0  0
    6.1667   -6.1917    0.0000 C   0  0  0  0  0  0  0  0  0  0  0  0
    5.5167   -5.8167    0.0000 C   0  0  0  0  0  0  0  0  0  0  0  0
  2  4  1  0
  3  1  1  0
  4  3  2  0
  6  5  1  0
  7  8  2  0
  8  5  1  0
  9  1  2  0
 10  2  2  0
 11  5  1  0
 12  6  1  0
 13 12  1  0
 14  1  1  0
 15  2  1  0
 16  7  1  0
 17  8  1  0
 18 11  2  0
 19 11  1  0
 20 13  1  0
 21 13  1  0
 22 24  1  0
 23 18  1  0
 24 17  2  0
 25 19  2  0
 26 25  1  0
 23 26  2  0
 22 16  2  0
M  END
>  <ID>  (1111) 


>  <MOLENAME>  (1111) 
PHENIRAMINE MALEATE

>  <therap>  (1111) 
antihistaminic

>  <ref>  (1111) 
Arch Neurol 34:313 (1977); Clin Therapeut 27:568 (2005); Indian J Crit Care Med 13:221 (2009)

>  <cas#>  (1111) 
132-20-7, 86-21-5 [pheniramine]

>  <source>  (1111) 
synthetic

>  <status>  (1111) 
USP, INN, BAN

>  <tradename>  (1111) 
AVIL

>  <SMILES>  (1111) 
CN(C)CCC(c1ccccc1)c1ncccc1

>  <standardized_failed>  (1111) 
False

$$$$

     RDKit          2D

 33 35  0  0  0  0  0  0  0  0999 V2000
    6.8792   -4.9417    0.0000 C   0  0  0  0  0  0  0  0  0  0  0  0
    5.4500   -4.9417    0.0000 C   0  0  0  0  0  0  0  0  0  0  0  0
    6.8792   -5.7667    0.0000 C   0  0  0  0  0  0  0  0  0  0  0  0
    8.3042   -4.9417    0.0000 C   0  0  0  0  0  0  0  0  0  0  0  0
    6.1667   -4.5292    0.0000 C   0  0  0  0  0  0  0  0  0  0  0  0
    7.5917   -4.5292    0.0000 C   0  0  0  0  0  0  0  0  0  0  0  0
    8.3042   -5.7667    0.0000 C   0  0  0  0  0  0  0  0  0  0  0  0
    5.4500   -5.7667    0.0000 C   0  0  0  0  0  0  0  0  0  0  0  0
    4.7375   -4.5292    0.0000 C   0  0  0  0  0  0  0  0  0  0  0  0
    4.7375   -6.1792    0.0000 C   0  0  0  0  0  0  0  0  0  0  0  0
    7.5917   -6.1792    0.0000 C   0  0  0  0  0  0  0  0  0  0  0  0
    4.0167   -4.9417    0.0000 C   0  0  0  0  0  0  0  0  0  0  0  0
    6.1667   -6.1792    0.0000 C   0  0  0  0  0  0  0  0  0  0  0  0
    4.0167   -5.7667    0.0000 C   0  0  0  0  0  0  0  0  0  0  0  0
    9.0292   -4.5292    0.0000 C   0  0  0  0  0  0  0  0  0  0  0  0
    7.5917   -7.0042    0.0000 N   0  0  0  0  0  0  0  0  0  0  0  0
    7.5917   -3.7042    0.0000 O   0  0  0  0  0  0  0  0  0  0  0  0
    4.7375   -3.7042    0.0000 O   0  0  0  0  0  0  0  0  0  0  0  0
    3.3042   -4.5292    0.0000 C   0  0  0  0  0  0  0  0  0  0  0  0
    4.7375   -7.0042    0.0000 C   0  0  0  0  0  0  0  0  0  0  0  0
    6.8792   -4.1167    0.0000 O   0  0  0  0  0  0  0  0  0  0  0  0
    9.0292   -3.7042    0.0000 O   0  0  0  0  0  0  0  0  0  0  0  0
    6.1667   -3.7042    0.0000 O   0  0  0  0  0  0  0  0  0  0  0  0
    9.0292   -6.1917    0.0000 O   0  0  0  0  0  0  0  0  0  0  0  0
    6.1667   -7.0042    0.0000 O   0  0  0  0  0  0  0  0  0  0  0  0
    9.7417   -4.9500    0.0000 N   0  0  0  0  0  0  0  0  0  0  0  0
    3.3042   -6.1792    0.0000 C   0  0  0  0  0  0  0  0  0  0  0  0
    3.3042   -3.7042    0.0000 O   0  0  0  0  0  0  0  0  0  0  0  0
    9.6042   -7.0875    0.0000 Cl  0  0  0  0  0  0  0  0  0  0  0  0
    2.5917   -5.7667    0.0000 C   0  0  0  0  0  0  0  0  0  0  0  0
    2.5917   -4.9417    0.0000 C   0  0  0  0  0  0  0  0  0  0  0  0
    6.8792   -7.4167    0.0000 C   0  0  0  0  0  0  0  0  0  0  0  0
    8.3042   -7.4167    0.0000 C   0  0  0  0  0  0  0  0  0  0  0  0
  2  5  2  0
  3  1  1  0
  4  6  1  0
  5  1  1  0
  6  1  1  0
  7  4  2  0
  8  2  1  0
  9  2  1  0
  8 10  1  6
  3 11  1  6
 12  9  1  0
  3 13  1  0
 14 12  2  0
 15  4  1  0
 11 16  1  1
 17  6  2  0
 18  9  2  0
 19 12  1  0
 20 10  2  0
  1 21  1  1
 22 15  2  0
 23  5  1  0
 24  7  1  0
 13 25  1  1
 26 15  1  0
 27 14  1  0
 28 19  1  0
 30 31  1  0
 31 19  2  0
 32 16  1  0
 33 16  1  0
  8 13  1  0
 11  7  1  0
 14 10  1  0
 27 30  2  0
M  END
>  <ID>  (1112) 


>  <MOLENAME>  (1112) 
METHACYCLINE HYDROCHLORIDE

>  <therap>  (1112) 
antibacterial

>  <ref>  (1112) 
Curr. Ther. Res. (1967), 9(7), 338-48; Antimicrob. Agents Chemother. (1962), 1961, 462-73; J. Am. Chem. Soc. (1961), 83, 2773-5

>  <cas#>  (1112) 
3963-95-9, 914-00-1 [methacycline]

>  <source>  (1112) 
semisynthetic

>  <status>  (1112) 
USAN, INN, BAN

>  <tradename>  (1112) 
RONDOMYCIN

>  <SMILES>  (1112) 
C=C1c2c(C(=O)C3=C(O)[C@]4(O)C(=O)C(C(N)=O)=C(O)[C@@H](N(C)C)[C@@H]4[C@@H](O)[C@H]13)c(O)ccc2

>  <standardized_failed>  (1112) 
False

$$$$

     RDKit          2D

 36 37  0  0  0  0  0  0  0  0999 V2000
    3.9292   -4.5042    0.0000 N   0  0  0  0  0  0  0  0  0  0  0  0
    4.3417   -5.2167    0.0000 C   0  0  0  0  0  0  0  0  0  0  0  0
    3.1500   -3.4250    0.0000 C   0  0  0  0  0  0  0  0  0  0  0  0
    3.1500   -4.2500    0.0000 C   0  0  0  0  0  0  0  0  0  0  0  0
    3.9292   -3.1667    0.0000 N   0  0  0  0  0  0  0  0  0  0  0  0
    5.1625   -5.0875    0.0000 C   0  0  0  0  0  0  0  0  0  0  0  0
    5.5292   -5.8125    0.0000 C   0  0  0  0  0  0  0  0  0  0  0  0
    4.4167   -3.8417    0.0000 C   0  0  0  0  0  0  0  0  0  0  0  0
    4.2250   -6.0167    0.0000 O   0  0  0  0  0  0  0  0  0  0  0  0
    2.4375   -3.0125    0.0000 C   0  0  0  0  0  0  0  0  0  0  0  0
    6.3167   -6.0250    0.0000 N   0  0  0  0  0  0  0  0  0  0  0  0
    4.9417   -6.3917    0.0000 C   0  0  0  0  0  0  0  0  0  0  0  0
    7.0375   -5.6167    0.0000 C   0  0  0  0  0  0  0  0  0  0  0  0
    2.4375   -4.6625    0.0000 N   0  0  0  0  0  0  0  0  0  0  0  0
    1.7167   -3.4250    0.0000 N   0  0  0  0  0  0  0  0  0  0  0  0
    1.7167   -4.2500    0.0000 C   0  0  0  0  0  0  0  0  0  0  0  0
    2.4375   -2.1875    0.0000 N   0  0  0  0  0  0  0  0  0  0  0  0
    7.7542   -6.0292    0.0000 C   0  0  0  0  0  0  0  0  0  0  0  0
    7.0375   -4.7917    0.0000 O   0  0  0  0  0  0  0  0  0  0  0  0
    7.7542   -6.8542    0.0000 C   0  0  0  0  0  0  0  0  0  0  0  0
    5.5500   -4.3500    0.0000 O   0  0  0  0  0  0  0  0  0  0  0  0
    8.4667   -7.2667    0.0000 C   0  0  0  0  0  0  0  0  0  0  0  0
    8.4667   -5.6167    0.0000 N   0  0  0  0  0  0  0  0  0  0  0  0
    9.8917   -8.0917    0.0000 C   0  0  0  0  0  0  0  0  0  0  0  0
    5.0542   -7.2167    0.0000 C   0  0  0  0  0  0  0  0  0  0  0  0
    9.7292   -5.6500    0.0000 Cl  0  0  0  0  0  0  0  0  0  0  0  0
    4.1125   -1.8042    0.0000 Cl  0  0  0  0  0  0  0  0  0  0  0  0
    8.4625   -8.0917    0.0000 C   0  0  0  0  0  0  0  0  0  0  0  0
    9.1750   -6.8542    0.0000 C   0  0  0  0  0  0  0  0  0  0  0  0
    9.1750   -8.5042    0.0000 C   0  0  0  0  0  0  0  0  0  0  0  0
    9.8917   -7.2667    0.0000 C   0  0  0  0  0  0  0  0  0  0  0  0
   10.6042   -8.5042    0.0000 O   0  0  0  0  0  0  0  0  0  0  0  0
    5.8167   -7.5375    0.0000 O   0  0  0  0  0  0  0  0  0  0  0  0
    1.7167   -1.7750    0.0000 C   0  0  0  0  0  0  0  0  0  0  0  0
    3.1500   -1.7750    0.0000 C   0  0  0  0  0  0  0  0  0  0  0  0
   10.6042   -9.3375    0.0000 C   0  0  0  0  0  0  0  0  0  0  0  0
  2  1  1  0
  3  4  2  0
  4  1  1  0
  5  8  2  0
  6  2  1  0
  7  6  1  0
  8  1  1  0
  9  2  1  0
 10  3  1  0
  7 11  1  6
 12  9  1  0
 13 11  1  0
 14  4  1  0
 15 16  1  0
 16 14  2  0
 17 10  1  0
 18 13  1  0
 19 13  2  0
 18 20  1  0
  6 21  1  6
 22 20  1  0
 18 23  1  1
 24 31  2  0
 12 25  1  1
 28 22  1  0
 29 22  2  0
 30 28  2  0
 31 29  1  0
 32 24  1  0
 33 25  1  0
 34 17  1  0
 35 17  1  0
 36 32  1  0
  5  3  1  0
 12  7  1  0
 15 10  2  0
 30 24  1  0
M  END
>  <ID>  (1113) 


>  <MOLENAME>  (1113) 
PUROMYCIN DIHYDROCHLORIDE

>  <therap>  (1113) 
antineoplastic, antiprotozoal

>  <ref>  (1113) 
PNAS 585: (1964); Gene 62:121 (1988); FEBS Letts 234:141 (1988); Kidney Internat 62:496 (2002)

>  <cas#>  (1113) 
58-58-2, 53-79-2 [puromycin]

>  <source>  (1113) 
Streptomyces alboniger; CL-16536

>  <status>  (1113) 
USAN, INN, BAN

>  <tradename>  (1113) 
nan

>  <SMILES>  (1113) 
COc1ccc(C[C@H](N)C(=O)N[C@@H]2[C@@H](CO)OC(n3cnc4c3ncnc4N(C)C)[C@@H]2O)cc1

>  <standardized_failed>  (1113) 
False

$$$$

     RDKit          2D

 27 31  0  0  0  0  0  0  0  0999 V2000
    8.1667   -3.2792    0.0000 C   0  0  0  0  0  0  0  0  0  0  0  0
    9.3875   -1.4667    0.0000 C   0  0  0  0  0  0  0  0  0  0  0  0
    6.0792   -3.2750    0.0000 C   0  0  0  0  0  0  0  0  0  0  0  0
    9.1875   -3.4750    0.0000 C   0  0  0  0  0  0  0  0  0  0  0  0
    5.6417   -3.9750    0.0000 C   0  0  0  0  0  0  0  0  0  0  0  0
    7.8542   -3.9667    0.0000 O   0  0  0  0  0  0  0  0  0  0  0  0
    7.0792   -0.4375    0.0000 C   0  0  0  0  0  0  0  0  0  0  0  0
    6.9792   -1.7792    0.0000 N   0  0  0  0  0  0  0  0  0  0  0  0
    5.6917   -2.5375    0.0000 C   0  0  0  0  0  0  0  0  0  0  0  0
    6.0417   -1.0917    0.0000 C   0  0  0  0  0  0  0  0  0  0  0  0
    7.0792   -2.6167    0.0000 C   0  0  0  0  0  0  0  0  0  0  0  0
   10.2625   -1.8750    0.0000 C   0  0  0  0  0  0  0  0  0  0  0  0
    4.8250   -3.9375    0.0000 C   0  0  0  0  0  0  0  0  0  0  0  0
    6.1667   -2.6167    0.0000 C   0  0  0  0  0  0  0  0  0  0  0  0
    7.1667   -2.3042    0.0000 C   0  0  0  0  0  0  0  0  0  0  0  0
    9.7292   -3.4792    0.0000 C   0  0  0  0  0  0  0  0  0  0  0  0
    4.8667   -2.5167    0.0000 C   0  0  0  0  0  0  0  0  0  0  0  0
    9.8542   -0.6542    0.0000 O   0  0  0  0  0  0  0  0  0  0  0  0
   10.2292   -2.8417    0.0000 C   0  0  0  0  0  0  0  0  0  0  0  0
    4.4292   -3.2167    0.0000 C   0  0  0  0  0  0  0  0  0  0  0  0
    4.3875   -4.6417    0.0000 O   0  0  0  0  0  0  0  0  0  0  0  0
   10.1167   -4.2167    0.0000 O   0  0  0  0  0  0  0  0  0  0  0  0
    8.4417   -0.1792    0.0000 Cl  0  0  0  0  0  0  0  0  0  0  0  0
    7.8500   -2.0917    0.0000 C   0  0  0  0  0  0  0  0  0  0  0  0
    8.6667   -1.2625    0.0000 C   0  0  0  0  0  0  0  0  0  0  0  0
    8.6750   -2.0875    0.0000 C   0  0  0  0  0  0  0  0  0  0  0  0
    7.8417   -1.2667    0.0000 C   0  0  0  0  0  0  0  0  0  0  0  0
  2  1  1  0
  3  1  1  0
  4  1  1  0
  5  3  2  0
  6  4  1  0
  7  2  1  0
  8 14  1  0
  9  3  1  0
 10  9  1  0
  1 11  1  1
 12  2  1  0
 13  5  1  0
 14 11  1  0
 15  8  1  0
 16  4  1  0
 17  9  2  0
  2 18  1  1
 19 16  1  0
 20 17  1  0
 21 13  1  0
 16 22  1  6
 24 15  1  0
 25 26  1  0
 26 24  1  0
 27 24  1  0
  6  5  1  0
  7  8  1  0
 19 12  1  0
  7 10  1  6
 20 13  2  0
 27 25  1  0
M  END
>  <ID>  (1114) 


>  <MOLENAME>  (1114) 
NALBUPHINE HYDROCHLORIDE

>  <therap>  (1114) 
analgesic, narcotic antagonist

>  <ref>  (1114) 
Acute Pain (2004), 6(1), 29-39; Drugs (1983), 26(3), 191-211; Clin. Pharmacol. Ther. (1972), 13(1), 78-90

>  <cas#>  (1114) 
23277-43-2, 20594-83-6 [nalbuphine]

>  <source>  (1114) 
synthetic; EN-2234A

>  <status>  (1114) 
USAN, INN, BAN

>  <tradename>  (1114) 
NUBAIN

>  <SMILES>  (1114) 
Oc1ccc2C[C@H]3N(CC4CCC4)CC[C@]45c2c1OC4[C@@H](O)CC[C@@]35O

>  <standardized_failed>  (1114) 
False

$$$$

     RDKit          2D

 21 22  0  0  0  0  0  0  0  0999 V2000
    1.4750    0.0958    0.0000 C   0  0  0  0  0  0  0  0  0  0  0  0
    1.4750   -0.7250    0.0000 C   0  0  0  0  0  0  0  0  0  0  0  0
    2.2583   -0.9792    0.0000 N   0  0  0  0  0  0  0  0  0  0  0  0
    2.2583    0.3500    0.0000 C   0  0  0  0  0  0  0  0  0  0  0  0
    0.7625    0.5125    0.0000 C   0  0  0  0  0  0  0  0  0  0  0  0
    2.7417   -0.3125    0.0000 C   0  0  0  0  0  0  0  0  0  0  0  0
    0.0542    0.0958    0.0000 C   0  0  0  0  0  0  0  0  0  0  0  0
   -0.6667    1.3333    0.0000 N   0  0  0  0  0  0  0  0  0  0  0  0
   -0.6625    0.5083    0.0000 C   0  0  0  0  0  0  0  0  0  0  0  0
    0.7625   -1.1375    0.0000 C   0  0  0  0  0  0  0  0  0  0  0  0
    0.7625    1.3375    0.0000 O   0  0  0  0  0  0  0  0  0  0  0  0
    0.0542   -0.7292    0.0000 C   0  0  0  0  0  0  0  0  0  0  0  0
   -0.6625    2.9833    0.0000 O   0  0  0  0  0  0  0  0  0  0  0  0
    2.5125    1.1375    0.0000 C   0  0  0  0  0  0  0  0  0  0  0  0
    3.5667   -0.3125    0.0000 C   0  0  0  0  0  0  0  0  0  0  0  0
    4.4542    0.2208    0.0000 Cl  0  0  0  0  0  0  0  0  0  0  0  0
   -1.3792    1.7458    0.0000 C   0  0  0  0  0  0  0  0  0  0  0  0
    0.0500    1.7500    0.0000 C   0  0  0  0  0  0  0  0  0  0  0  0
    0.0500    2.5708    0.0000 C   0  0  0  0  0  0  0  0  0  0  0  0
   -1.3792    2.5708    0.0000 C   0  0  0  0  0  0  0  0  0  0  0  0
    3.3208    1.3083    0.0000 C   0  0  0  0  0  0  0  0  0  0  0  0
  2  1  2  0
  3  2  1  0
  4  1  1  0
  5  1  1  0
  6  4  2  0
  7  5  1  0
  8  9  1  0
  9  7  1  0
 10  2  1  0
 11  5  2  0
 12 10  1  0
 13 20  1  0
 14  4  1  0
 15  6  1  0
 17  8  1  0
 18  8  1  0
 19 18  1  0
 20 17  1  0
 21 14  1  0
  6  3  1  0
 12  7  1  0
 13 19  1  0
M  END
>  <ID>  (1115) 


>  <MOLENAME>  (1115) 
MOLINDONE HYDROCHLORIDE

>  <therap>  (1115) 
antipsychotic

>  <ref>  (1115) 
J. Clin. Psychopharmacol. (1989), 9(4), 268-76; Neuropharmacology (1983), 22(3A), 273-8; Nature (1967), 216(5115), 578-9

>  <cas#>  (1115) 
15622-65-8

>  <source>  (1115) 
synthetic; EN-1733A

>  <status>  (1115) 
USP, INN, BAN

>  <tradename>  (1115) 
nan

>  <SMILES>  (1115) 
CCc1c(C)[nH]c2c1C(=O)C(CN1CCOCC1)CC2

>  <standardized_failed>  (1115) 
False

$$$$

     RDKit          2D

 24 24  0  0  0  0  0  0  0  0999 V2000
    6.7792   -3.8042    0.0000 N   0  0  0  0  0  0  0  0  0  0  0  0
    6.0667   -3.3917    0.0000 N   0  0  0  0  0  0  0  0  0  0  0  0
    6.7792   -4.6292    0.0000 C   0  0  0  0  0  0  0  0  0  0  0  0
    5.3625   -3.8042    0.0000 C   0  0  0  0  0  0  0  0  0  0  0  0
    6.0667   -5.0417    0.0000 C   0  0  0  0  0  0  0  0  0  0  0  0
    5.3625   -4.6292    0.0000 C   0  0  0  0  0  0  0  0  0  0  0  0
    8.2042   -7.1042    0.0000 N   0  0  0  0  0  0  0  0  0  0  0  0
    4.8500   -3.4417    0.0000 C   0  0  0  0  0  0  0  0  0  0  0  0
    7.5000   -5.0417    0.0000 N   0  0  0  0  0  0  0  0  0  0  0  0
    8.2000   -8.7542    0.0000 O   0  0  0  0  0  0  0  0  0  0  0  0
    9.6042   -6.6167    0.0000 Cl  0  0  0  0  0  0  0  0  0  0  0  0
    8.0417   -4.2125    0.0000 Cl  0  0  0  0  0  0  0  0  0  0  0  0
    7.4917   -5.8667    0.0000 C   0  0  0  0  0  0  0  0  0  0  0  0
    8.2125   -6.2792    0.0000 C   0  0  0  0  0  0  0  0  0  0  0  0
    7.4875   -7.5125    0.0000 C   0  0  0  0  0  0  0  0  0  0  0  0
    8.9250   -7.5167    0.0000 C   0  0  0  0  0  0  0  0  0  0  0  0
    6.0667   -5.8667    0.0000 C   0  0  0  0  0  0  0  0  0  0  0  0
    8.9167   -8.3417    0.0000 C   0  0  0  0  0  0  0  0  0  0  0  0
    7.4875   -8.3375    0.0000 C   0  0  0  0  0  0  0  0  0  0  0  0
    4.8500   -2.6167    0.0000 C   0  0  0  0  0  0  0  0  0  0  0  0
    4.1375   -3.8542    0.0000 C   0  0  0  0  0  0  0  0  0  0  0  0
    3.4250   -3.4417    0.0000 C   0  0  0  0  0  0  0  0  0  0  0  0
    4.1375   -2.2042    0.0000 C   0  0  0  0  0  0  0  0  0  0  0  0
    3.4250   -2.6167    0.0000 C   0  0  0  0  0  0  0  0  0  0  0  0
  2  1  2  0
  3  1  1  0
  4  2  1  0
  5  3  2  0
  6  5  1  0
  7 14  1  0
  8  4  1  0
  9  3  1  0
 10 18  1  0
 13  9  1  0
 14 13  1  0
 15  7  1  0
 16  7  1  0
 17  5  1  0
 18 16  1  0
 19 15  1  0
 20  8  2  0
 21  8  1  0
 22 21  2  0
 23 20  1  0
 24 22  1  0
  4  6  2  0
 23 24  2  0
 19 10  1  0
M  END
>  <ID>  (1116) 


>  <MOLENAME>  (1116) 
MINAPRINE HYDROCHLORIDE

>  <therap>  (1116) 
antidepressant, psychotropic

>  <ref>  (1116) 
Prog. Neuro-Psychopharmacol. Biol. Psychiatry (1988), 12(5), 629-37; Arzneim. Forsch. (1982), 32(8), 824-31; Agressologie (1972), 13(5), 285-9

>  <cas#>  (1116) 
25953-17-7, 25905-77-5 [minaprine]

>  <source>  (1116) 
synthetic; CB-30038

>  <status>  (1116) 
USAN

>  <tradename>  (1116) 
CANTOR

>  <SMILES>  (1116) 
Cc1c(NCCN2CCOCC2)nnc(-c2ccccc2)c1

>  <standardized_failed>  (1116) 
False

$$$$

     RDKit          2D

 19 20  0  0  0  0  0  0  0  0999 V2000
    3.4500   -1.3417    0.0000 C   0  0  0  0  0  0  0  0  0  0  0  0
    2.6250   -1.3417    0.0000 C   0  0  0  0  0  0  0  0  0  0  0  0
   -1.0833   -0.6292    0.0000 C   0  0  0  0  0  0  0  0  0  0  0  0
    4.7167   -1.7542    0.0000 N   0  0  0  0  0  0  0  0  0  0  0  0
    3.9292   -0.6750    0.0000 C   0  0  0  0  0  0  0  0  0  0  0  0
    2.2125   -0.6250    0.0000 N   0  0  0  0  0  0  0  0  0  0  0  0
    4.7167   -0.9292    0.0000 O   0  0  0  0  0  0  0  0  0  0  0  0
    3.9292   -2.0042    0.0000 C   0  0  0  0  0  0  0  0  0  0  0  0
   -0.2583   -0.6292    0.0000 C   0  0  0  0  0  0  0  0  0  0  0  0
    2.2125   -2.0542    0.0000 O   0  0  0  0  0  0  0  0  0  0  0  0
   -1.9083   -0.6250    0.0000 F   0  0  0  0  0  0  0  0  0  0  0  0
   -1.5000    0.0833    0.0000 F   0  0  0  0  0  0  0  0  0  0  0  0
   -1.4958   -1.3417    0.0000 F   0  0  0  0  0  0  0  0  0  0  0  0
    0.1500    0.0833    0.0000 C   0  0  0  0  0  0  0  0  0  0  0  0
    0.1500   -1.3375    0.0000 C   0  0  0  0  0  0  0  0  0  0  0  0
    1.3875   -0.6250    0.0000 C   0  0  0  0  0  0  0  0  0  0  0  0
    0.9750   -1.3375    0.0000 C   0  0  0  0  0  0  0  0  0  0  0  0
    0.9750    0.0875    0.0000 C   0  0  0  0  0  0  0  0  0  0  0  0
    3.6750    0.1083    0.0000 C   0  0  0  0  0  0  0  0  0  0  0  0
  2  1  1  0
  3  9  1  0
  4  8  2  0
  5  1  2  0
  6  2  1  0
  7  5  1  0
  8  1  1  0
  9 14  2  0
 10  2  2  0
 11  3  1  0
 12  3  1  0
 13  3  1  0
 14 18  1  0
 15 17  2  0
 16  6  1  0
 17 16  1  0
 18 16  2  0
 19  5  1  0
  4  7  1  0
  9 15  1  0
M  END
>  <ID>  (1117) 


>  <MOLENAME>  (1117) 
LEFLUNOMIDE

>  <therap>  (1117) 
antineoplastic, PDGF receptor blocker, immunomodulator

>  <ref>  (1117) 
Transplant Proc 28:3074 (1996); J Rheumatol 25 Suppl 53:27 (1998); J Pharmac Soc Wisc 1999:33

>  <cas#>  (1117) 
75706-12-6

>  <source>  (1117) 
synthetic; SU-101; HWA-486

>  <status>  (1117) 
USAN, INN, BAN

>  <tradename>  (1117) 
ARAVA

>  <SMILES>  (1117) 
Cc1c(C(=O)Nc2ccc(C(F)(F)F)cc2)cno1

>  <standardized_failed>  (1117) 
False

$$$$

     RDKit          2D

 14 15  0  0  0  0  0  0  0  0999 V2000
    4.9875   -0.6875    0.0000 C   0  0  0  0  0  0  0  0  0  0  0  0
    6.0167   -1.7792    0.0000 C   0  0  0  0  0  0  0  0  0  0  0  0
    4.8500   -1.8625    0.0000 C   0  0  0  0  0  0  0  0  0  0  0  0
    3.5500   -2.2167    0.0000 C   0  0  0  0  0  0  0  0  0  0  0  0
    4.6417   -1.3125    0.0000 C   0  0  0  0  0  0  0  0  0  0  0  0
    5.3000   -1.4667    0.0000 C   0  0  0  0  0  0  0  0  0  0  0  0
    5.3000   -2.2417    0.0000 C   0  0  0  0  0  0  0  0  0  0  0  0
    3.5792   -1.4042    0.0000 C   0  0  0  0  0  0  0  0  0  0  0  0
    4.9542   -2.9042    0.0000 C   0  0  0  0  0  0  0  0  0  0  0  0
    4.6417   -2.3417    0.0000 C   0  0  0  0  0  0  0  0  0  0  0  0
    5.2042    0.0958    0.0000 N   0  0  0  0  0  0  0  0  0  0  0  0
    7.0167    0.1583    0.0000 Cl  0  0  0  0  0  0  0  0  0  0  0  0
    6.7667   -1.7792    0.0000 C   0  0  0  0  0  0  0  0  0  0  0  0
    4.0500   -1.7792    0.0000 C   0  0  0  0  0  0  0  0  0  0  0  0
  2  6  1  0
  3  5  1  0
  4  8  1  0
  5  1  1  0
  6  1  1  0
  7  2  1  0
  8  1  1  0
  9  4  1  0
 10  4  1  0
 11  1  1  0
 13  2  1  0
 14  3  1  0
  3 10  1  0
  2  9  1  0
  3  7  1  0
M  END
>  <ID>  (1118) 


>  <MOLENAME>  (1118) 
MEMANTINE HYDROCHLORIDE

>  <therap>  (1118) 
muscle relaxant (skeletal)

>  <ref>  (1118) 
Drugs (2011), 71(15), 2031-2065; Eur. J. Pharmacol. (1974), 26(1), 9-14; Psychopharmacologia (1975), 43(1), 53-61

>  <cas#>  (1118) 
19982-08-2

>  <source>  (1118) 
synthetic

>  <status>  (1118) 
USAN

>  <tradename>  (1118) 
NAMENDA

>  <SMILES>  (1118) 
CC12CC3CC(C)(C1)CC(N)(C3)C2

>  <standardized_failed>  (1118) 
False

$$$$

     RDKit          2D

 36 37  0  0  0  0  0  0  0  0999 V2000
    2.9792   -4.2500    0.0000 C   0  0  0  0  0  0  0  0  0  0  0  0
    4.4000   -4.2500    0.0000 C   0  0  0  0  0  0  0  0  0  0  0  0
    3.6792   -4.6542    0.0000 C   0  0  0  0  0  0  0  0  0  0  0  0
    2.9792   -3.4250    0.0000 C   0  0  0  0  0  0  0  0  0  0  0  0
    4.4000   -3.4250    0.0000 C   0  0  0  0  0  0  0  0  0  0  0  0
    3.6792   -3.0042    0.0000 N   0  0  0  0  0  0  0  0  0  0  0  0
    5.1125   -7.1375    0.0000 N   0  0  0  0  0  0  0  0  0  0  0  0
    3.6792   -5.4750    0.0000 C   0  0  0  0  0  0  0  0  0  0  0  0
    5.1167   -4.6625    0.0000 C   0  0  0  0  0  0  0  0  0  0  0  0
    2.2542   -4.6625    0.0000 C   0  0  0  0  0  0  0  0  0  0  0  0
    4.3917   -6.7125    0.0000 C   0  0  0  0  0  0  0  0  0  0  0  0
    4.4000   -5.8875    0.0000 C   0  0  0  0  0  0  0  0  0  0  0  0
    5.1042   -7.9625    0.0000 O   0  0  0  0  0  0  0  0  0  0  0  0
    5.8292   -6.7250    0.0000 O   0  0  0  0  0  0  0  0  0  0  0  0
    2.2542   -5.4875    0.0000 O   0  0  0  0  0  0  0  0  0  0  0  0
    5.1125   -5.4875    0.0000 O   0  0  0  0  0  0  0  0  0  0  0  0
    7.9750   -4.6625    0.0000 N   0  0  0  0  0  0  0  0  0  0  0  0
    5.8292   -4.2500    0.0000 O   0  0  0  0  0  0  0  0  0  0  0  0
    8.6875   -4.2500    0.0000 C   0  0  0  0  0  0  0  0  0  0  0  0
    1.5500   -4.2500    0.0000 O   0  0  0  0  0  0  0  0  0  0  0  0
    2.2542   -3.0125    0.0000 C   0  0  0  0  0  0  0  0  0  0  0  0
    5.1167   -3.0125    0.0000 C   0  0  0  0  0  0  0  0  0  0  0  0
    2.9667   -5.8875    0.0000 C   0  0  0  0  0  0  0  0  0  0  0  0
    6.3542   -2.9042    0.0000 Cl  0  0  0  0  0  0  0  0  0  0  0  0
    9.4000   -4.6625    0.0000 C   0  0  0  0  0  0  0  0  0  0  0  0
    6.5417   -4.6625    0.0000 C   0  0  0  0  0  0  0  0  0  0  0  0
    3.6792   -7.1250    0.0000 C   0  0  0  0  0  0  0  0  0  0  0  0
    2.9667   -6.7125    0.0000 C   0  0  0  0  0  0  0  0  0  0  0  0
    7.2542   -4.2500    0.0000 C   0  0  0  0  0  0  0  0  0  0  0  0
    7.9667   -5.4875    0.0000 C   0  0  0  0  0  0  0  0  0  0  0  0
    1.5417   -3.4250    0.0000 C   0  0  0  0  0  0  0  0  0  0  0  0
    9.3917   -5.4917    0.0000 C   0  0  0  0  0  0  0  0  0  0  0  0
   10.1125   -4.2542    0.0000 C   0  0  0  0  0  0  0  0  0  0  0  0
   10.1042   -5.9042    0.0000 C   0  0  0  0  0  0  0  0  0  0  0  0
   10.8250   -4.6750    0.0000 C   0  0  0  0  0  0  0  0  0  0  0  0
   10.8167   -5.5000    0.0000 C   0  0  0  0  0  0  0  0  0  0  0  0
  2  3  1  0
  3  1  1  0
  4  1  2  0
  5  6  1  0
  6  4  1  0
  7 11  1  0
  8  3  1  0
  9  2  1  0
 10  1  1  0
 11 12  2  0
 12  8  1  0
 13  7  1  0
 14  7  2  0
 15 10  2  0
 16  9  2  0
 17 29  1  0
 18  9  1  0
 19 17  1  0
 20 10  1  0
 21  4  1  0
 22  5  1  0
 23  8  2  0
 25 19  1  0
 26 18  1  0
 27 28  2  0
 28 23  1  0
 29 26  1  0
 30 17  1  0
 31 20  1  0
 32 25  2  0
 33 25  1  0
 34 32  1  0
 35 33  2  0
 36 34  2  0
  2  5  2  0
 27 11  1  0
 35 36  1  0
M  CHG  2   7   1  13  -1
M  END
>  <ID>  (1119) 


>  <MOLENAME>  (1119) 
NICARDIPINE HYDROCHLORIDE

>  <therap>  (1119) 
vasodilator

>  <ref>  (1119) 
Am. Heart J. (1990), 119(2 Pt 2), 427-34; Chem. Pharm. Bull. (1979), 27(6), 1426-40; Arzneim. Forsch. (1976), 26(12), 2172-8

>  <cas#>  (1119) 
54527-84-3, 55985-32-5 [nicardipine]

>  <source>  (1119) 
synthetic; YC-93, RS-69216

>  <status>  (1119) 
USAN, INN, BAN, JAN

>  <tradename>  (1119) 
CARDENE

>  <SMILES>  (1119) 
COC(=O)C1=C(C)NC(C)=C(C(=O)OCCN(C)Cc2ccccc2)C1c1cccc([N+](=O)[O-])c1

>  <standardized_failed>  (1119) 
False

$$$$

     RDKit          2D

 28 29  0  0  0  0  0  0  0  0999 V2000
    5.0542   -5.4792    0.0000 N   0  0  0  0  0  0  0  0  0  0  0  0
    4.3167   -5.8417    0.0000 C   0  0  0  0  0  0  0  0  0  0  0  0
    5.0542   -4.6542    0.0000 C   0  0  0  0  0  0  0  0  0  0  0  0
    4.6542   -7.2792    0.0000 C   0  0  0  0  0  0  0  0  0  0  0  0
    5.8042   -5.8417    0.0000 C   0  0  0  0  0  0  0  0  0  0  0  0
    4.1375   -6.6417    0.0000 C   0  0  0  0  0  0  0  0  0  0  0  0
    5.4667   -7.2792    0.0000 N   0  0  0  0  0  0  0  0  0  0  0  0
    5.9917   -6.6417    0.0000 C   0  0  0  0  0  0  0  0  0  0  0  0
    5.7667   -3.4125    0.0000 N   0  0  0  0  0  0  0  0  0  0  0  0
    5.7667   -4.2417    0.0000 C   0  0  0  0  0  0  0  0  0  0  0  0
    6.4125   -5.2792    0.0000 N   0  0  0  0  0  0  0  0  0  0  0  0
    5.7625   -1.7625    0.0000 N   0  0  0  0  0  0  0  0  0  0  0  0
    4.3375   -4.2417    0.0000 O   0  0  0  0  0  0  0  0  0  0  0  0
    4.3000   -8.0417    0.0000 O   0  0  0  0  0  0  0  0  0  0  0  0
    6.4792   -2.9917    0.0000 C   0  0  0  0  0  0  0  0  0  0  0  0
    5.0500   -3.0042    0.0000 C   0  0  0  0  0  0  0  0  0  0  0  0
    5.0500   -2.1667    0.0000 C   0  0  0  0  0  0  0  0  0  0  0  0
    6.4792   -2.1667    0.0000 C   0  0  0  0  0  0  0  0  0  0  0  0
    3.3542   -6.8875    0.0000 C   0  0  0  0  0  0  0  0  0  0  0  0
    3.7167   -5.2792    0.0000 C   0  0  0  0  0  0  0  0  0  0  0  0
    6.8917   -1.4667    0.0000 Cl  0  0  0  0  0  0  0  0  0  0  0  0
    6.9792   -3.6792    0.0000 Cl  0  0  0  0  0  0  0  0  0  0  0  0
    6.7792   -6.8917    0.0000 C   0  0  0  0  0  0  0  0  0  0  0  0
    5.7625   -0.9375    0.0000 C   0  0  0  0  0  0  0  0  0  0  0  0
    7.1917   -5.5167    0.0000 C   0  0  0  0  0  0  0  0  0  0  0  0
    7.3875   -6.3292    0.0000 C   0  0  0  0  0  0  0  0  0  0  0  0
    2.7417   -6.3292    0.0000 C   0  0  0  0  0  0  0  0  0  0  0  0
    2.9292   -5.5292    0.0000 C   0  0  0  0  0  0  0  0  0  0  0  0
  2  1  1  0
  3  1  1  0
  4  6  1  0
  5  1  1  0
  6  2  2  0
  7  8  1  0
  8  5  2  0
  9 10  1  0
 10  3  1  0
 11  5  1  0
 12 17  1  0
 13  3  2  0
 14  4  2  0
 15  9  1  0
 16  9  1  0
 17 16  1  0
 18 15  1  0
 19  6  1  0
 20  2  1  0
 23  8  1  0
 24 12  1  0
 25 11  2  0
 26 25  1  0
 27 28  1  0
 28 20  2  0
  4  7  1  0
 23 26  2  0
 19 27  2  0
 18 12  1  0
M  END
>  <ID>  (1120) 


>  <MOLENAME>  (1120) 
PIRENZEPINE HYDROCHLORIDE

>  <therap>  (1120) 
antiulcer

>  <ref>  (1120) 
Arzneim Forsch 27:684 (1977); Scand J Gastroenterol 17 Suppl 81:1 (1982)

>  <cas#>  (1120) 
29868-97-1, 28797-61-7 [pirenzepine]

>  <source>  (1120) 
synthetic; LS-519-CL2

>  <status>  (1120) 
USAN, INN, BAN, JAN

>  <tradename>  (1120) 
GASTERIL

>  <SMILES>  (1120) 
CN1CCN(CC(=O)N2c3c(cccc3)C(=O)Nc3c2nccc3)CC1

>  <standardized_failed>  (1120) 
False

$$$$

     RDKit          2D

 22 22  0  0  0  0  0  0  0  0999 V2000
    9.4417   -6.6625    0.0000 N   0  0  0  0  0  0  0  0  0  0  0  0
   11.0875   -6.6917    0.0000 O   0  0  0  0  0  0  0  0  0  0  0  0
    4.5125   -5.1667    0.0000 C   0  0  0  0  0  0  0  0  0  0  0  0
    6.1625   -5.1875    0.0000 C   0  0  0  0  0  0  0  0  0  0  0  0
    8.3542   -7.4000    0.0000 Cl  0  0  0  0  0  0  0  0  0  0  0  0
    4.9250   -5.8875    0.0000 C   0  0  0  0  0  0  0  0  0  0  0  0
    5.7625   -4.4667    0.0000 C   0  0  0  0  0  0  0  0  0  0  0  0
    5.7417   -5.9000    0.0000 C   0  0  0  0  0  0  0  0  0  0  0  0
    4.9375   -4.4625    0.0000 C   0  0  0  0  0  0  0  0  0  0  0  0
    8.6167   -6.6500    0.0000 C   0  0  0  0  0  0  0  0  0  0  0  0
    8.2125   -5.9292    0.0000 C   0  0  0  0  0  0  0  0  0  0  0  0
    6.9875   -5.2000    0.0000 O   0  0  0  0  0  0  0  0  0  0  0  0
    3.6875   -5.1667    0.0000 O   0  0  0  0  0  0  0  0  0  0  0  0
    9.8417   -7.3875    0.0000 C   0  0  0  0  0  0  0  0  0  0  0  0
    9.8625   -5.9542    0.0000 C   0  0  0  0  0  0  0  0  0  0  0  0
   10.6625   -7.4000    0.0000 C   0  0  0  0  0  0  0  0  0  0  0  0
   10.6875   -5.9667    0.0000 C   0  0  0  0  0  0  0  0  0  0  0  0
    7.3875   -5.9167    0.0000 C   0  0  0  0  0  0  0  0  0  0  0  0
    3.2875   -4.4417    0.0000 C   0  0  0  0  0  0  0  0  0  0  0  0
    2.4625   -4.4375    0.0000 C   0  0  0  0  0  0  0  0  0  0  0  0
    2.0542   -3.7167    0.0000 C   0  0  0  0  0  0  0  0  0  0  0  0
    1.2292   -3.7125    0.0000 C   0  0  0  0  0  0  0  0  0  0  0  0
  2 16  1  0
  3  6  2  0
  4 12  1  0
  6  8  1  0
  7  4  1  0
  8  4  2  0
  9  7  2  0
 10  1  1  0
 11 10  1  0
 12 18  1  0
 13  3  1  0
 14  1  1  0
 15  1  1  0
 16 14  1  0
 17 15  1  0
 18 11  1  0
 19 13  1  0
 20 19  1  0
 21 20  1  0
 22 21  1  0
 17  2  1  0
  9  3  1  0
M  END
>  <ID>  (1121) 


>  <MOLENAME>  (1121) 
PRAMOXINE HYDROCHLORIDE

>  <therap>  (1121) 
anesthetic (topical)

>  <ref>  (1121) 
Anesth Analg Reanimat 14:225 (1957); Toxicol Appl Pharmacol 1:454 (1959); Anesth Analg 38:265 (1959)

>  <cas#>  (1121) 
637-58-1, 140-65-8 [pramoxine]

>  <source>  (1121) 
synthetic

>  <status>  (1121) 
USAN, INN, BAN

>  <tradename>  (1121) 
TRONOLANE

>  <SMILES>  (1121) 
CCCCOc1ccc(OCCCN2CCOCC2)cc1

>  <standardized_failed>  (1121) 
False

$$$$

     RDKit          2D

 28 29  0  0  0  0  0  0  0  0999 V2000
   10.3792   -6.1042    0.0000 N   0  0  0  0  0  0  0  0  0  0  0  0
    5.4042   -6.1875    0.0000 C   0  0  0  0  0  0  0  0  0  0  0  0
    4.9917   -6.9000    0.0000 C   0  0  0  0  0  0  0  0  0  0  0  0
    7.3417   -6.9042    0.0000 N   0  0  0  0  0  0  0  0  0  0  0  0
    8.6167   -7.3250    0.0000 N   0  0  0  0  0  0  0  0  0  0  0  0
    6.2292   -6.1875    0.0000 C   0  0  0  0  0  0  0  0  0  0  0  0
    7.8292   -7.5792    0.0000 C   0  0  0  0  0  0  0  0  0  0  0  0
    4.1625   -6.9000    0.0000 C   0  0  0  0  0  0  0  0  0  0  0  0
   10.9542   -6.4375    0.0000 O   0  0  0  0  0  0  0  0  0  0  0  0
    4.9917   -5.4667    0.0000 C   0  0  0  0  0  0  0  0  0  0  0  0
    6.6417   -5.4667    0.0000 S   0  0  0  0  0  0  0  0  0  0  0  0
    6.6417   -6.9000    0.0000 C   0  0  0  0  0  0  0  0  0  0  0  0
   10.3875   -5.4375    0.0000 O   0  0  0  0  0  0  0  0  0  0  0  0
    8.6167   -6.5042    0.0000 C   0  0  0  0  0  0  0  0  0  0  0  0
    7.8375   -6.2417    0.0000 C   0  0  0  0  0  0  0  0  0  0  0  0
    9.8000   -6.4292    0.0000 O   0  0  0  0  0  0  0  0  0  0  0  0
    3.7500   -6.1875    0.0000 C   0  0  0  0  0  0  0  0  0  0  0  0
    5.4125   -7.6167    0.0000 Cl  0  0  0  0  0  0  0  0  0  0  0  0
    7.4667   -5.4667    0.0000 C   0  0  0  0  0  0  0  0  0  0  0  0
    4.1625   -5.4667    0.0000 C   0  0  0  0  0  0  0  0  0  0  0  0
    8.7125   -3.3292    0.0000 C   0  0  0  0  0  0  0  0  0  0  0  0
    7.8792   -4.7542    0.0000 C   0  0  0  0  0  0  0  0  0  0  0  0
    2.9250   -6.1875    0.0000 Cl  0  0  0  0  0  0  0  0  0  0  0  0
    9.1292   -2.6042    0.0000 Cl  0  0  0  0  0  0  0  0  0  0  0  0
    9.1250   -4.0417    0.0000 C   0  0  0  0  0  0  0  0  0  0  0  0
    7.8792   -3.3292    0.0000 C   0  0  0  0  0  0  0  0  0  0  0  0
    7.4667   -4.0417    0.0000 C   0  0  0  0  0  0  0  0  0  0  0  0
    8.7125   -4.7542    0.0000 C   0  0  0  0  0  0  0  0  0  0  0  0
  3  2  2  0
  4 12  1  0
  5  7  2  0
  6  2  1  0
  7  4  1  0
  8  3  1  0
  9  1  1  0
 10  2  1  0
 11  6  1  0
 12  6  1  0
 13  1  2  0
 14 15  2  0
 15  4  1  0
 16  1  1  0
 17 20  1  0
 18  3  1  0
 19 11  1  0
 20 10  2  0
 21 25  2  0
 22 19  1  0
 23 17  1  0
 24 21  1  0
 25 28  1  0
 26 27  2  0
 27 22  1  0
 28 22  2  0
  8 17  2  0
 14  5  1  0
 26 21  1  0
M  CHG  2   1   1   9  -1
M  END
>  <ID>  (1122) 


>  <MOLENAME>  (1122) 
SULCONAZOLE NITRATE

>  <therap>  (1122) 
antifungal

>  <ref>  (1122) 
Drugs 35:143 (1988); J Am Acad Dermatol 21:686 (1989)

>  <cas#>  (1122) 
61318-91-0, 61318-90-9 [sulconazole]

>  <source>  (1122) 
synthetic; RS-44872

>  <status>  (1122) 
USP, INN, BAN, JAN

>  <tradename>  (1122) 
EXELDERM

>  <SMILES>  (1122) 
Clc1ccc(CSC(Cn2ccnc2)c2c(Cl)cc(Cl)cc2)cc1

>  <standardized_failed>  (1122) 
False

$$$$

     RDKit          2D

 22 22  0  0  0  0  0  0  0  0999 V2000
    2.4167    0.3833    0.0000 C   0  0  0  0  0  0  0  0  0  0  0  0
    1.5417    0.3708    0.0000 C   0  0  0  0  0  0  0  0  0  0  0  0
    1.1042    1.1208    0.0000 C   0  0  0  0  0  0  0  0  0  0  0  0
    1.1167   -0.3917    0.0000 C   0  0  0  0  0  0  0  0  0  0  0  0
    2.8417    1.1375    0.0000 C   0  0  0  0  0  0  0  0  0  0  0  0
    3.7167    1.1458    0.0000 N   0  0  0  0  0  0  0  0  0  0  0  0
   -0.1833    0.3458    0.0000 C   0  0  0  0  0  0  0  0  0  0  0  0
    6.3542   -1.8417    0.0000 C   0  0  0  0  0  0  0  0  0  0  0  0
    0.2292    1.1083    0.0000 C   0  0  0  0  0  0  0  0  0  0  0  0
    0.2542   -0.4000    0.0000 C   0  0  0  0  0  0  0  0  0  0  0  0
    2.8667   -0.3667    0.0000 O   0  0  0  0  0  0  0  0  0  0  0  0
    5.4667   -0.3417    0.0000 C   0  0  0  0  0  0  0  0  0  0  0  0
    5.5417    1.3000    0.0000 Cl  0  0  0  0  0  0  0  0  0  0  0  0
    6.7750   -1.0792    0.0000 C   0  0  0  0  0  0  0  0  0  0  0  0
    5.4792   -1.8417    0.0000 C   0  0  0  0  0  0  0  0  0  0  0  0
    5.0417   -1.1000    0.0000 C   0  0  0  0  0  0  0  0  0  0  0  0
    6.3417   -0.3292    0.0000 C   0  0  0  0  0  0  0  0  0  0  0  0
    4.1542    0.4000    0.0000 C   0  0  0  0  0  0  0  0  0  0  0  0
   -1.0583    0.3333    0.0000 O   0  0  0  0  0  0  0  0  0  0  0  0
    6.7917   -2.5917    0.0000 O   0  0  0  0  0  0  0  0  0  0  0  0
    5.0292    0.4083    0.0000 C   0  0  0  0  0  0  0  0  0  0  0  0
    2.4042    1.8958    0.0000 C   0  0  0  0  0  0  0  0  0  0  0  0
  2  1  1  0
  3  2  2  0
  4  2  1  0
  5  1  1  0
  6  5  1  0
  7 10  1  0
  8 15  2  0
  9  3  1  0
 10  4  2  0
 11  1  1  0
 12 21  1  0
 14 17  2  0
 15 16  1  0
 16 12  2  0
 17 12  1  0
 18  6  1  0
 19  7  1  0
 20  8  1  0
 21 18  1  0
 22  5  1  0
  9  7  2  0
 14  8  1  0
M  END
>  <ID>  (1123) 


>  <MOLENAME>  (1123) 
RITODRINE HYDROCHLORIDE

>  <therap>  (1123) 
muscle relaxant (smooth)

>  <ref>  (1123) 
J Obstet Gynecol 104:1053 (1969); 110:111 (1971); Br J Med J 3:144 (1971)

>  <cas#>  (1123) 
23239-51-2, 26652-09-5 [ritodrine]

>  <source>  (1123) 
synthetic; DU-21220

>  <status>  (1123) 
USAN, INN, BAN

>  <tradename>  (1123) 
YUTOPAR

>  <SMILES>  (1123) 
CC(NCCc1ccc(O)cc1)C(O)c1ccc(O)cc1

>  <standardized_failed>  (1123) 
False

$$$$

     RDKit          2D

 22 21  0  0  0  0  0  0  0  0999 V2000
    9.1167   -3.7375    0.0000 N   0  0  0  0  0  0  0  0  0  0  0  0
    8.7375   -2.9667    0.0000 C   0  0  0  0  0  0  0  0  0  0  0  0
    9.0792   -2.2375    0.0000 C   0  0  0  0  0  0  0  0  0  0  0  0
    3.5500   -1.3375    0.0000 C   0  0  0  0  0  0  0  0  0  0  0  0
    4.2167   -0.8542    0.0000 O   0  0  0  0  0  0  0  0  0  0  0  0
    4.8875   -1.3375    0.0000 C   0  0  0  0  0  0  0  0  0  0  0  0
    3.8042   -2.1292    0.0000 C   0  0  0  0  0  0  0  0  0  0  0  0
    4.6292   -2.1292    0.0000 C   0  0  0  0  0  0  0  0  0  0  0  0
    8.6042   -4.3833    0.0000 O   0  0  0  0  0  0  0  0  0  0  0  0
    9.9375   -3.8625    0.0000 O   0  0  0  0  0  0  0  0  0  0  0  0
    2.7625   -1.0875    0.0000 C   0  0  0  0  0  0  0  0  0  0  0  0
    9.8875   -2.0750    0.0000 N   0  0  0  0  0  0  0  0  0  0  0  0
    8.4667   -1.6792    0.0000 N   0  0  0  0  0  0  0  0  0  0  0  0
    2.5917   -0.2750    0.0000 N   0  0  0  0  0  0  0  0  0  0  0  0
    6.2875   -1.6375    0.0000 S   0  0  0  0  0  0  0  0  0  0  0  0
    0.8750   -2.1792    0.0000 Cl  0  0  0  0  0  0  0  0  0  0  0  0
    5.6750   -1.0875    0.0000 C   0  0  0  0  0  0  0  0  0  0  0  0
    7.6875   -1.9375    0.0000 C   0  0  0  0  0  0  0  0  0  0  0  0
    7.0750   -1.3875    0.0000 C   0  0  0  0  0  0  0  0  0  0  0  0
    3.2042    0.2750    0.0000 C   0  0  0  0  0  0  0  0  0  0  0  0
    1.8042   -0.0250    0.0000 C   0  0  0  0  0  0  0  0  0  0  0  0
   10.4375   -2.6875    0.0000 C   0  0  0  0  0  0  0  0  0  0  0  0
  2  1  1  0
  3  2  2  0
  4  5  1  0
  5  6  1  0
  6 17  1  0
  7  8  1  0
  8  6  2  0
  9  1  1  0
 10  1  2  0
 11  4  1  0
 12  3  1  0
 13  3  1  0
 14 11  1  0
 15 19  1  0
 17 15  1  0
 18 13  1  0
 19 18  1  0
 20 14  1  0
 21 14  1  0
 22 12  1  0
  4  7  2  0
M  CHG  2   1   1   9  -1
M  END
>  <ID>  (1124) 


>  <MOLENAME>  (1124) 
RANITIDINE HYDROCHLORIDE

>  <therap>  (1124) 
H2 antihistamine

>  <ref>  (1124) 
Drugs 24:267 (1982); Anal Profiles Drug Subs 15:533 (1986)

>  <cas#>  (1124) 
66357-59-3; 66357-35-5

>  <source>  (1124) 
synthetic

>  <status>  (1124) 
USAN, INN, BAN

>  <tradename>  (1124) 
ZANTAC

>  <SMILES>  (1124) 
CN/C(=C\[N+](=O)[O-])NCCSCc1ccc(CN(C)C)o1

>  <standardized_failed>  (1124) 
False

$$$$

     RDKit          2D

 14 14  0  0  0  0  0  0  0  0999 V2000
    0.8167    0.3625    0.0000 C   0  0  0  0  0  0  0  0  0  0  0  0
    1.4917    0.8458    0.0000 N   0  0  0  0  0  0  0  0  0  0  0  0
    0.0375    0.6208    0.0000 N   0  0  0  0  0  0  0  0  0  0  0  0
    1.0750   -0.4292    0.0000 C   0  0  0  0  0  0  0  0  0  0  0  0
    1.9042   -0.4292    0.0000 N   0  0  0  0  0  0  0  0  0  0  0  0
    2.1625    0.3625    0.0000 C   0  0  0  0  0  0  0  0  0  0  0  0
    3.3875   -0.7417    0.0000 C   0  0  0  0  0  0  0  0  0  0  0  0
   -0.1333    1.4250    0.0000 O   0  0  0  0  0  0  0  0  0  0  0  0
   -0.5750    0.0708    0.0000 O   0  0  0  0  0  0  0  0  0  0  0  0
    2.9417    0.6208    0.0000 C   0  0  0  0  0  0  0  0  0  0  0  0
    3.5625    0.0625    0.0000 O   0  0  0  0  0  0  0  0  0  0  0  0
    4.0000   -1.2917    0.0000 O   0  0  0  0  0  0  0  0  0  0  0  0
    2.6042   -1.0000    0.0000 N   0  0  0  0  0  0  0  0  0  0  0  0
    1.4917    1.6708    0.0000 C   0  0  0  0  0  0  0  0  0  0  0  0
  2  1  1  0
  3  1  1  0
  4  1  2  0
  5  4  1  0
  6  2  1  0
  7 11  1  0
  8  3  1  0
  9  3  2  0
 10  6  1  0
 11 10  1  0
 12  7  2  0
 13  7  1  0
 14  2  1  0
  5  6  2  0
M  CHG  2   3   1   8  -1
M  END
>  <ID>  (1125) 


>  <MOLENAME>  (1125) 
RONIDAZOLE

>  <therap>  (1125) 
antiprotozoal

>  <ref>  (1125) 
Appl Microbiol 22:480 (1971); J Vet Intern Med 20:536 (2006)

>  <cas#>  (1125) 
7681-76-7

>  <source>  (1125) 
synthetic

>  <status>  (1125) 
USAN, INN, BAN

>  <tradename>  (1125) 
RIDZOL

>  <SMILES>  (1125) 
Cn1c([N+](=O)[O-])cnc1COC(N)=O

>  <standardized_failed>  (1125) 
False

$$$$

     RDKit          2D

 28 29  0  0  0  0  0  0  0  0999 V2000
    0.8792   -4.0875    0.0000 N   0  0  0  0  0  0  0  0  0  0  0  0
    4.2250   -6.0792    0.0000 C   0  0  0  0  0  0  0  0  0  0  0  0
    4.7375   -6.7292    0.0000 C   0  0  0  0  0  0  0  0  0  0  0  0
    4.3125   -3.8917    0.0000 N   0  0  0  0  0  0  0  0  0  0  0  0
    5.0500   -2.7792    0.0000 N   0  0  0  0  0  0  0  0  0  0  0  0
    4.5250   -5.3167    0.0000 C   0  0  0  0  0  0  0  0  0  0  0  0
    5.0875   -3.5917    0.0000 C   0  0  0  0  0  0  0  0  0  0  0  0
    4.4375   -7.5042    0.0000 C   0  0  0  0  0  0  0  0  0  0  0  0
    1.4667   -4.4250    0.0000 O   0  0  0  0  0  0  0  0  0  0  0  0
    3.4000   -6.2042    0.0000 C   0  0  0  0  0  0  0  0  0  0  0  0
    4.0125   -4.6667    0.0000 C   0  0  0  0  0  0  0  0  0  0  0  0
    0.8792   -3.4042    0.0000 O   0  0  0  0  0  0  0  0  0  0  0  0
    5.3500   -5.1917    0.0000 O   0  0  0  0  0  0  0  0  0  0  0  0
    4.2500   -2.5542    0.0000 C   0  0  0  0  0  0  0  0  0  0  0  0
    3.7875   -3.2417    0.0000 C   0  0  0  0  0  0  0  0  0  0  0  0
    0.2875   -4.4167    0.0000 O   0  0  0  0  0  0  0  0  0  0  0  0
    3.6125   -7.6292    0.0000 C   0  0  0  0  0  0  0  0  0  0  0  0
    5.5625   -6.6042    0.0000 Cl  0  0  0  0  0  0  0  0  0  0  0  0
    3.1000   -6.9792    0.0000 C   0  0  0  0  0  0  0  0  0  0  0  0
    5.8625   -5.8292    0.0000 C   0  0  0  0  0  0  0  0  0  0  0  0
    8.3250   -5.4542    0.0000 C   0  0  0  0  0  0  0  0  0  0  0  0
    6.6792   -5.7042    0.0000 C   0  0  0  0  0  0  0  0  0  0  0  0
    3.3125   -8.4042    0.0000 Cl  0  0  0  0  0  0  0  0  0  0  0  0
    9.1542   -5.3292    0.0000 Cl  0  0  0  0  0  0  0  0  0  0  0  0
    8.0167   -6.2167    0.0000 C   0  0  0  0  0  0  0  0  0  0  0  0
    7.8042   -4.8042    0.0000 C   0  0  0  0  0  0  0  0  0  0  0  0
    6.9792   -4.9292    0.0000 C   0  0  0  0  0  0  0  0  0  0  0  0
    7.1917   -6.3417    0.0000 C   0  0  0  0  0  0  0  0  0  0  0  0
  3  2  2  0
  4 11  1  0
  5  7  2  0
  6  2  1  0
  7  4  1  0
  8  3  1  0
  9  1  1  0
 10  2  1  0
 11  6  1  0
 12  1  2  0
 13  6  1  0
 14 15  2  0
 15  4  1  0
 16  1  1  0
 17 19  1  0
 18  3  1  0
 19 10  2  0
 20 13  1  0
 21 25  2  0
 22 20  1  0
 23 17  1  0
 24 21  1  0
 25 28  1  0
 26 27  2  0
 27 22  1  0
 28 22  2  0
  8 17  2  0
  5 14  1  0
 26 21  1  0
M  CHG  2   1   1   9  -1
M  END
>  <ID>  (1126) 


>  <MOLENAME>  (1126) 
ECONAZOLE NITRATE

>  <therap>  (1126) 
antifungal

>  <ref>  (1126) 
Drugs (1978), 16(3), 177-201; Arzneim. Forsch. (1975), 25(2), 224-30; J. Med. Chem. (1969), 12(5), 784-91

>  <cas#>  (1126) 
68797-31-9, 27220-47-9 [econazole]

>  <source>  (1126) 
 synthetic; SQ-13050, R-14827

>  <status>  (1126) 
USP, INN, BAN, JAN

>  <tradename>  (1126) 
SPECTAZOLE

>  <SMILES>  (1126) 
Clc1ccc(COC(Cn2ccnc2)c2c(Cl)cc(Cl)cc2)cc1

>  <standardized_failed>  (1126) 
False

$$$$

     RDKit          2D

 30 32  0  0  0  0  0  0  0  0999 V2000
    2.7875   -1.9375    0.0000 N   0  0  0  0  0  0  0  0  0  0  0  0
    2.0375   -1.9375    0.0000 C   0  0  0  0  0  0  0  0  0  0  0  0
    2.7875   -2.6875    0.0000 C   0  0  0  0  0  0  0  0  0  0  0  0
    2.0375   -2.6875    0.0000 C   0  0  0  0  0  0  0  0  0  0  0  0
    3.4292   -1.5625    0.0000 C   0  0  0  0  0  0  0  0  0  0  0  0
    6.7917   -1.7125    0.0000 S   0  0  0  0  0  0  0  0  0  0  0  0
   -2.5333   -3.8000    0.0000 N   0  0  0  0  0  0  0  0  0  0  0  0
    3.4292   -3.0625    0.0000 S   0  0  0  0  0  0  0  0  0  0  0  0
   -1.8208   -4.0250    0.0000 N   0  0  0  0  0  0  0  0  0  0  0  0
   -1.3750   -3.4125    0.0000 N   0  0  0  0  0  0  0  0  0  0  0  0
    4.0792   -1.9375    0.0000 C   0  0  0  0  0  0  0  0  0  0  0  0
    6.1417   -1.3375    0.0000 C   0  0  0  0  0  0  0  0  0  0  0  0
   -2.5333   -3.0417    0.0000 N   0  0  0  0  0  0  0  0  0  0  0  0
    6.1417   -0.5875    0.0000 N   0  0  0  0  0  0  0  0  0  0  0  0
    7.4417   -0.5875    0.0000 N   0  0  0  0  0  0  0  0  0  0  0  0
    0.9750   -2.6917    0.0000 N   0  0  0  0  0  0  0  0  0  0  0  0
    3.4292   -0.8125    0.0000 C   0  0  0  0  0  0  0  0  0  0  0  0
    7.4417   -1.3375    0.0000 C   0  0  0  0  0  0  0  0  0  0  0  0
   -1.8208   -2.8167    0.0000 C   0  0  0  0  0  0  0  0  0  0  0  0
   -0.2625   -2.7500    0.0000 C   0  0  0  0  0  0  0  0  0  0  0  0
   -0.6250   -3.4000    0.0000 C   0  0  0  0  0  0  0  0  0  0  0  0
    4.0792   -2.6875    0.0000 C   0  0  0  0  0  0  0  0  0  0  0  0
    1.5042   -1.4042    0.0000 O   0  0  0  0  0  0  0  0  0  0  0  0
    5.6125   -2.1167    0.0000 S   0  0  0  0  0  0  0  0  0  0  0  0
    4.7292   -1.5625    0.0000 C   0  0  0  0  0  0  0  0  0  0  0  0
    3.9917   -0.4292    0.0000 O   0  0  0  0  0  0  0  0  0  0  0  0
    2.7875   -0.4375    0.0000 O   0  0  0  0  0  0  0  0  0  0  0  0
   -0.2708   -1.9917    0.0000 O   0  0  0  0  0  0  0  0  0  0  0  0
    4.7042   -0.3375    0.0000 Na  0  0  0  0  0 15  0  0  0  0  0  0
    8.0917   -1.7125    0.0000 C   0  0  0  0  0  0  0  0  0  0  0  0
  2  1  1  0
  3  1  1  0
  4  3  1  0
  5  1  1  0
  6 12  1  0
  7  9  2  0
  3  8  1  6
  9 10  1  0
 10 21  1  0
 11  5  2  0
 12 24  1  0
 13 19  2  0
 14 12  2  0
 15 14  1  0
  4 16  1  6
 17  5  1  0
 18  6  1  0
 19 10  1  0
 20 16  1  0
 21 20  1  0
 22 11  1  0
 23  2  2  0
 24 25  1  0
 25 11  1  0
 26 17  1  0
 27 17  2  0
 28 20  2  0
 30 18  1  0
  4  2  1  0
 22  8  1  0
 15 18  2  0
 13  7  1  0
M  CHG  2  26  -1  29   1
M  END
>  <ID>  (1127) 


>  <MOLENAME>  (1127) 
CEFAZOLIN SODIUM

>  <therap>  (1127) 
antibacterial

>  <ref>  (1127) 
J Antibiot 23:131 (1970); J Infect Dis 128 Suppl:379 (1973)

>  <cas#>  (1127) 
27164-46-1, 25953-19-9 [cefazolin]

>  <source>  (1127) 
semisynthetic

>  <status>  (1127) 
USP, INN, BAN

>  <tradename>  (1127) 
ANCEF

>  <SMILES>  (1127) 
Cc1nnc(SCC2=C(C(=O)O)N3C(=O)[C@@H](NC(=O)Cn4cnnn4)[C@H]3SC2)s1

>  <standardized_failed>  (1127) 
False

$$$$

     RDKit          2D

 42 43  0  0  0  0  0  0  0  0999 V2000
   10.1667   -3.5500    0.0000 C   0  0  0  0  0  0  0  0  0  0  0  0
    3.6417   -4.6667    0.0000 C   0  0  0  0  0  0  0  0  0  0  0  0
    4.3542   -4.2542    0.0000 C   0  0  0  0  0  0  0  0  0  0  0  0
    9.5792   -3.8875    0.0000 C   0  0  0  0  0  0  0  0  0  0  0  0
   10.7417   -3.8875    0.0000 C   0  0  0  0  0  0  0  0  0  0  0  0
   10.1667   -2.8792    0.0000 C   0  0  0  0  0  0  0  0  0  0  0  0
   11.3292   -3.5500    0.0000 C   0  0  0  0  0  0  0  0  0  0  0  0
    9.0042   -3.5500    0.0000 C   0  0  0  0  0  0  0  0  0  0  0  0
    2.9250   -4.2542    0.0000 C   0  0  0  0  0  0  0  0  0  0  0  0
    3.6417   -5.4917    0.0000 C   0  0  0  0  0  0  0  0  0  0  0  0
    4.3542   -3.4292    0.0000 C   0  0  0  0  0  0  0  0  0  0  0  0
    9.5792   -2.5417    0.0000 O   0  0  0  0  0  0  0  0  0  0  0  0
    9.0042   -2.8792    0.0000 O   0  0  0  0  0  0  0  0  0  0  0  0
   11.3250   -2.8792    0.0000 O   0  0  0  0  0  0  0  0  0  0  0  0
    2.9250   -3.4292    0.0000 C   0  0  0  0  0  0  0  0  0  0  0  0
    2.2042   -4.6750    0.0000 C   0  0  0  0  0  0  0  0  0  0  0  0
   10.1625   -4.2250    0.0000 O   0  0  0  0  0  0  0  0  0  0  0  0
   10.7417   -2.5417    0.0000 O   0  0  0  0  0  0  0  0  0  0  0  0
   -1.3583   -3.4375    0.0000 N   0  0  0  0  0  0  0  0  0  0  0  0
    1.4917   -3.4375    0.0000 C   0  0  0  0  0  0  0  0  0  0  0  0
    8.4250   -3.8875    0.0000 O   0  0  0  0  0  0  0  0  0  0  0  0
   11.9042   -3.8792    0.0000 O   0  0  0  0  0  0  0  0  0  0  0  0
    1.4917   -4.2542    0.0000 C   0  0  0  0  0  0  0  0  0  0  0  0
    2.2042   -3.0167    0.0000 C   0  0  0  0  0  0  0  0  0  0  0  0
    5.0667   -4.6667    0.0000 C   0  0  0  0  0  0  0  0  0  0  0  0
    0.7792   -3.0250    0.0000 O   0  0  0  0  0  0  0  0  0  0  0  0
    6.4917   -4.6542    0.0000 Cl  0  0  0  0  0  0  0  0  0  0  0  0
    0.0667   -3.4375    0.0000 C   0  0  0  0  0  0  0  0  0  0  0  0
   -0.6458   -3.0250    0.0000 C   0  0  0  0  0  0  0  0  0  0  0  0
    5.0667   -3.0250    0.0000 C   0  0  0  0  0  0  0  0  0  0  0  0
    3.6375   -3.0292    0.0000 C   0  0  0  0  0  0  0  0  0  0  0  0
    2.9292   -5.9125    0.0000 C   0  0  0  0  0  0  0  0  0  0  0  0
    4.3542   -5.9042    0.0000 C   0  0  0  0  0  0  0  0  0  0  0  0
    5.7792   -4.2500    0.0000 C   0  0  0  0  0  0  0  0  0  0  0  0
   -2.0708   -3.0250    0.0000 C   0  0  0  0  0  0  0  0  0  0  0  0
   -1.3583   -4.2542    0.0000 C   0  0  0  0  0  0  0  0  0  0  0  0
    4.3625   -6.7292    0.0000 C   0  0  0  0  0  0  0  0  0  0  0  0
    2.9292   -6.7292    0.0000 C   0  0  0  0  0  0  0  0  0  0  0  0
    5.0667   -2.2000    0.0000 C   0  0  0  0  0  0  0  0  0  0  0  0
    3.6292   -2.2042    0.0000 C   0  0  0  0  0  0  0  0  0  0  0  0
    4.3500   -1.7917    0.0000 C   0  0  0  0  0  0  0  0  0  0  0  0
    3.6417   -7.1417    0.0000 C   0  0  0  0  0  0  0  0  0  0  0  0
  3  2  2  0
  4  1  1  0
  5  1  1  0
  6  1  1  0
  7  5  1  0
  8  4  1  0
  9  2  1  0
 10  2  1  0
 11  3  1  0
 12  6  2  0
 13  8  2  0
 14  7  2  0
 15  9  2  0
 16  9  1  0
 17  1  1  0
 18  6  1  0
 19 29  1  0
 20 23  1  0
 21  8  1  0
 22  7  1  0
 23 16  2  0
 24 15  1  0
 25  3  1  0
 26 20  1  0
 27 34  1  0
 28 26  1  0
 29 28  1  0
 30 11  2  0
 31 11  1  0
 32 10  2  0
 33 10  1  0
 34 25  1  0
 35 19  1  0
 36 19  1  0
 37 33  2  0
 38 32  1  0
 39 30  1  0
 40 31  2  0
 41 40  1  0
 42 37  1  0
 20 24  2  0
 42 38  2  0
 41 39  2  0
M  END
>  <ID>  (1128) 


>  <MOLENAME>  (1128) 
TOREMIPHENE CITRATE

>  <therap>  (1128) 
antineoplastic, anti-estrogen

>  <ref>  (1128) 
Drugs 54:141 (1997); Drugs Aging 11:261 (1997)

>  <cas#>  (1128) 
89778-27-8

>  <source>  (1128) 
synthetic; FC-1157a

>  <status>  (1128) 
USAN, INN, BAN

>  <tradename>  (1128) 
FARESTON

>  <SMILES>  (1128) 
CN(C)CCOc1ccc(/C(=C(/CCCl)c2ccccc2)c2ccccc2)cc1

>  <standardized_failed>  (1128) 
False

$$$$

     RDKit          2D

  7  7  0  0  0  0  0  0  0  0999 V2000
    5.8250   -5.9167    0.0000 C   0  0  0  0  0  0  0  0  0  0  0  0
    5.8250   -5.0917    0.0000 C   0  0  0  0  0  0  0  0  0  0  0  0
    6.6042   -6.1667    0.0000 N   0  0  0  0  0  0  0  0  0  0  0  0
    7.0917   -5.5042    0.0000 O   0  0  0  0  0  0  0  0  0  0  0  0
    5.1542   -6.4042    0.0000 O   0  0  0  0  0  0  0  0  0  0  0  0
    6.6042   -4.8417    0.0000 C   0  0  0  0  0  0  0  0  0  0  0  0
    5.1542   -4.6042    0.0000 N   0  0  0  0  0  0  0  0  0  0  0  0
  2  1  1  0
  3  1  1  0
  4  3  1  0
  5  1  2  0
  6  2  1  0
  2  7  1  1
  6  4  1  0
M  END
>  <ID>  (1129) 


>  <MOLENAME>  (1129) 
LEVCYCLOSERINE

>  <therap>  (1129) 
enzyme inhibitor, Gaucher's disease therapy

>  <ref>  (1129) 
Biochemistry (2004), 43(4), 1082-1092; Biochem. Pharmacol. (2000), 59(10), 1211-1216; Experientia (1957), 13, 291

>  <cas#>  (1129) 
339-72-0

>  <source>  (1129) 
synthetic

>  <status>  (1129) 
USAN, INN

>  <tradename>  (1129) 
nan

>  <SMILES>  (1129) 
N[C@H]1CONC1=O

>  <standardized_failed>  (1129) 
False

$$$$

     RDKit          2D

  8  6  0  0  0  0  0  0  0  0999 V2000
    5.6292   -7.5167    0.0000 C   0  0  0  0  0  0  0  0  0  0  0  0
    6.3417   -7.9292    0.0000 O   0  0  0  0  0  0  0  0  0  0  0  0
    5.6292   -6.6917    0.0000 O   0  0  0  0  0  0  0  0  0  0  0  0
    7.7542   -7.8667    0.0000 Na  0  0  0  0  0 15  0  0  0  0  0  0
    2.7792   -7.5167    0.0000 O   0  0  0  0  0  0  0  0  0  0  0  0
    4.9167   -7.9292    0.0000 C   0  0  0  0  0  0  0  0  0  0  0  0
    3.4917   -7.9292    0.0000 C   0  0  0  0  0  0  0  0  0  0  0  0
    4.2042   -7.5167    0.0000 C   0  0  0  0  0  0  0  0  0  0  0  0
  2  1  1  0
  3  1  2  0
  5  7  1  0
  6  1  1  0
  7  8  1  0
  8  6  1  0
M  CHG  2   2  -1   4   1
M  END
>  <ID>  (1130) 


>  <MOLENAME>  (1130) 
SODIUM OXYBATE

>  <therap>  (1130) 
anesthetic

>  <ref>  (1130) 
Curr Neurol Neurosci Reports 4:155 (2004); Sleep Med 10:661 (2009); J Clin Sleep Med 5:365 (2009)

>  <cas#>  (1130) 
502-85-2

>  <source>  (1130) 
synthetic; WY-3478, NSC-84223

>  <status>  (1130) 
USAN

>  <tradename>  (1130) 
XYREM

>  <SMILES>  (1130) 
O=C(O)CCCO

>  <standardized_failed>  (1130) 
False

$$$$

     RDKit          2D

 23 24  0  0  0  0  0  0  0  0999 V2000
    4.0875   -1.3542    0.0000 S   0  0  0  0  0  0  0  0  0  0  0  0
    7.7917   -2.0917    0.0000 N   0  0  0  0  0  0  0  0  0  0  0  0
    4.5000   -2.0750    0.0000 N   0  0  0  0  0  0  0  0  0  0  0  0
    3.2625   -1.3542    0.0000 C   0  0  0  0  0  0  0  0  0  0  0  0
    6.9667   -2.0875    0.0000 C   0  0  0  0  0  0  0  0  0  0  0  0
    3.8667   -0.5542    0.0000 O   0  0  0  0  0  0  0  0  0  0  0  0
    4.8792   -1.1417    0.0000 O   0  0  0  0  0  0  0  0  0  0  0  0
    8.2042   -2.8000    0.0000 O   0  0  0  0  0  0  0  0  0  0  0  0
    0.3750   -0.6417    0.0000 C   0  0  0  0  0  0  0  0  0  0  0  0
    8.2125   -1.3750    0.0000 O   0  0  0  0  0  0  0  0  0  0  0  0
    0.7875   -1.3542    0.0000 N   0  0  0  0  0  0  0  0  0  0  0  0
    0.7792    0.0708    0.0000 O   0  0  0  0  0  0  0  0  0  0  0  0
    2.8542   -2.0667    0.0000 C   0  0  0  0  0  0  0  0  0  0  0  0
    2.8542   -0.6417    0.0000 C   0  0  0  0  0  0  0  0  0  0  0  0
    5.3250   -2.0750    0.0000 C   0  0  0  0  0  0  0  0  0  0  0  0
    6.5542   -2.7917    0.0000 C   0  0  0  0  0  0  0  0  0  0  0  0
    6.5625   -1.3667    0.0000 C   0  0  0  0  0  0  0  0  0  0  0  0
    1.6125   -1.3542    0.0000 C   0  0  0  0  0  0  0  0  0  0  0  0
    5.7292   -1.3625    0.0000 C   0  0  0  0  0  0  0  0  0  0  0  0
    5.7292   -2.7917    0.0000 C   0  0  0  0  0  0  0  0  0  0  0  0
    2.0292   -2.0667    0.0000 C   0  0  0  0  0  0  0  0  0  0  0  0
    2.0292   -0.6417    0.0000 C   0  0  0  0  0  0  0  0  0  0  0  0
   -0.4500   -0.6417    0.0000 C   0  0  0  0  0  0  0  0  0  0  0  0
  2  5  1  0
  3  1  1  0
  4  1  1  0
  5 16  2  0
  6  1  2  0
  7  1  2  0
  8  2  1  0
  9 11  1  0
 10  2  2  0
 11 18  1  0
 12  9  2  0
 13  4  2  0
 14  4  1  0
 15  3  1  0
 16 20  1  0
 17 19  2  0
 18 22  1  0
 19 15  1  0
 20 15  2  0
 21 13  1  0
 22 14  2  0
 23  9  1  0
 21 18  2  0
 17  5  1  0
M  CHG  2   2   1   8  -1
M  END
>  <ID>  (1131) 


>  <MOLENAME>  (1131) 
SULFANITRAN

>  <therap>  (1131) 
antibacterial, coccidiostat

>  <ref>  (1131) 
JACS 60:1553 (1938); J Org Chem 12:275 (1947)

>  <cas#>  (1131) 
122-16-7

>  <source>  (1131) 
synthetic; NSC-77120

>  <status>  (1131) 
USAN, INN, BAN

>  <tradename>  (1131) 
NOVASTAT-W

>  <SMILES>  (1131) 
CC(=O)Nc1ccc(S(=O)(=O)Nc2ccc([N+](=O)[O-])cc2)cc1

>  <standardized_failed>  (1131) 
False

$$$$

     RDKit          2D

132145  0  0  0  0  0  0  0  0999 V2000
    3.5750   -6.4792    0.0000 C   0  0  0  0  0  0  0  0  0  0  0  0
    2.1417   -4.0042    0.0000 C   0  0  0  0  0  0  0  0  0  0  0  0
    7.1417   -1.9417    0.0000 C   0  0  0  0  0  0  0  0  0  0  0  0
    4.2917   -6.8917    0.0000 N   0  0  0  0  0  0  0  0  0  0  0  0
    7.8667   -2.3500    0.0000 C   0  0  0  0  0  0  0  0  0  0  0  0
    2.8625   -4.4125    0.0000 C   0  0  0  0  0  0  0  0  0  0  0  0
    2.5750   -7.3125    0.0000 N   0  0  0  0  0  0  0  0  0  0  0  0
    2.6042   -6.5042    0.0000 C   0  0  0  0  0  0  0  0  0  0  0  0
    8.5667   -6.9125    0.0000 N   0  0  0  0  0  0  0  0  0  0  0  0
    6.8542   -7.6250    0.0000 N   0  0  0  0  0  0  0  0  0  0  0  0
   10.9750   -7.5167    0.0000 N   0  0  0  0  0  0  0  0  0  0  0  0
    3.0042  -11.1792    0.0000 C   0  0  0  0  0  0  0  0  0  0  0  0
    3.4000   -9.0292    0.0000 C   0  0  0  0  0  0  0  0  0  0  0  0
    5.4500   -6.8792    0.0000 C   0  0  0  0  0  0  0  0  0  0  0  0
    2.9875   -8.3167    0.0000 C   0  0  0  0  0  0  0  0  0  0  0  0
    7.2042   -6.9125    0.0000 C   0  0  0  0  0  0  0  0  0  0  0  0
    9.5667   -6.9042    0.0000 C   0  0  0  0  0  0  0  0  0  0  0  0
    3.0167  -12.0042    0.0000 C   0  0  0  0  0  0  0  0  0  0  0  0
    4.2250   -9.0292    0.0000 C   0  0  0  0  0  0  0  0  0  0  0  0
    7.8667   -4.0000    0.0000 C   0  0  0  0  0  0  0  0  0  0  0  0
    3.3292   -7.6625    0.0000 C   0  0  0  0  0  0  0  0  0  0  0  0
    7.1417   -1.1125    0.0000 C   0  0  0  0  0  0  0  0  0  0  0  0
    2.1417   -3.1750    0.0000 C   0  0  0  0  0  0  0  0  0  0  0  0
    3.5750   -5.6542    0.0000 C   0  0  0  0  0  0  0  0  0  0  0  0
   12.1917   -8.2375    0.0000 C   0  0  0  0  0  0  0  0  0  0  0  0
    2.3000  -12.4250    0.0000 C   0  0  0  0  0  0  0  0  0  0  0  0
    7.8500   -6.5042    0.0000 C   0  0  0  0  0  0  0  0  0  0  0  0
   12.6125   -7.5250    0.0000 N   0  0  0  0  0  0  0  0  0  0  0  0
   10.1417   -7.5125    0.0000 C   0  0  0  0  0  0  0  0  0  0  0  0
    7.1542   -4.4125    0.0000 C   0  0  0  0  0  0  0  0  0  0  0  0
    8.5875   -4.4042    0.0000 C   0  0  0  0  0  0  0  0  0  0  0  0
   11.3917   -6.8042    0.0000 C   0  0  0  0  0  0  0  0  0  0  0  0
    5.8667   -7.5917    0.0000 C   0  0  0  0  0  0  0  0  0  0  0  0
    3.5750   -3.9917    0.0000 O   0  0  0  0  0  0  0  0  0  0  0  0
    8.5792   -1.9292    0.0000 O   0  0  0  0  0  0  0  0  0  0  0  0
    2.2875  -10.7667    0.0000 O   0  0  0  0  0  0  0  0  0  0  0  0
    2.9917   -9.7500    0.0000 C   0  0  0  0  0  0  0  0  0  0  0  0
    7.8667   -3.1750    0.0000 O   0  0  0  0  0  0  0  0  0  0  0  0
    2.8667   -5.2375    0.0000 O   0  0  0  0  0  0  0  0  0  0  0  0
    7.8750   -5.6542    0.0000 C   0  0  0  0  0  0  0  0  0  0  0  0
    2.8542   -2.7542    0.0000 C   0  0  0  0  0  0  0  0  0  0  0  0
    7.8542   -0.6917    0.0000 C   0  0  0  0  0  0  0  0  0  0  0  0
    1.5875  -12.0167    0.0000 C   0  0  0  0  0  0  0  0  0  0  0  0
    9.3042   -3.9917    0.0000 O   0  0  0  0  0  0  0  0  0  0  0  0
    6.4375   -3.9917    0.0000 O   0  0  0  0  0  0  0  0  0  0  0  0
    9.7250   -8.2125    0.0000 C   0  0  0  0  0  0  0  0  0  0  0  0
    3.5667   -3.1667    0.0000 C   0  0  0  0  0  0  0  0  0  0  0  0
    1.5792  -11.1917    0.0000 C   0  0  0  0  0  0  0  0  0  0  0  0
    8.5750   -1.1042    0.0000 C   0  0  0  0  0  0  0  0  0  0  0  0
   12.2042   -6.8042    0.0000 C   0  0  0  0  0  0  0  0  0  0  0  0
    4.6375   -8.3125    0.0000 C   0  0  0  0  0  0  0  0  0  0  0  0
    3.4167  -10.4625    0.0000 O   0  0  0  0  0  0  0  0  0  0  0  0
   10.1167  -10.3667    0.0000 O   0  0  0  0  0  0  0  0  0  0  0  0
    5.4542   -8.3042    0.0000 C   0  0  0  0  0  0  0  0  0  0  0  0
    4.2917   -5.2417    0.0000 C   0  0  0  0  0  0  0  0  0  0  0  0
   10.9417  -10.3750    0.0000 C   0  0  0  0  0  0  0  0  0  0  0  0
    1.4292   -4.4167    0.0000 N   0  0  0  0  0  0  0  0  0  0  0  0
    6.4292   -2.3542    0.0000 N   0  0  0  0  0  0  0  0  0  0  0  0
   12.1917   -9.6667    0.0000 C   0  0  0  0  0  0  0  0  0  0  0  0
    4.0125   -7.6542    0.0000 C   0  0  0  0  0  0  0  0  0  0  0  0
   12.6042   -8.9542    0.0000 C   0  0  0  0  0  0  0  0  0  0  0  0
    7.1542   -5.2417    0.0000 C   0  0  0  0  0  0  0  0  0  0  0  0
    8.5875   -5.2417    0.0000 C   0  0  0  0  0  0  0  0  0  0  0  0
    5.7167   -4.4125    0.0000 C   0  0  0  0  0  0  0  0  0  0  0  0
   10.0292   -4.4042    0.0000 C   0  0  0  0  0  0  0  0  0  0  0  0
    9.7125   -9.6500    0.0000 C   0  0  0  0  0  0  0  0  0  0  0  0
    2.1750   -9.7542    0.0000 C   0  0  0  0  0  0  0  0  0  0  0  0
   11.3667   -9.6625    0.0000 C   0  0  0  0  0  0  0  0  0  0  0  0
    5.7167   -5.2417    0.0000 C   0  0  0  0  0  0  0  0  0  0  0  0
    5.0042   -5.6542    0.0000 C   0  0  0  0  0  0  0  0  0  0  0  0
   10.7500   -3.9917    0.0000 C   0  0  0  0  0  0  0  0  0  0  0  0
    4.6417   -9.7417    0.0000 C   0  0  0  0  0  0  0  0  0  0  0  0
    0.7125   -4.0042    0.0000 C   0  0  0  0  0  0  0  0  0  0  0  0
    5.7167   -1.9500    0.0000 C   0  0  0  0  0  0  0  0  0  0  0  0
   10.1375   -8.9375    0.0000 C   0  0  0  0  0  0  0  0  0  0  0  0
    2.1625   -8.3250    0.0000 C   0  0  0  0  0  0  0  0  0  0  0  0
    8.9042   -8.2125    0.0000 C   0  0  0  0  0  0  0  0  0  0  0  0
    1.9542   -6.1292    0.0000 O   0  0  0  0  0  0  0  0  0  0  0  0
    9.8792   -6.1417    0.0000 O   0  0  0  0  0  0  0  0  0  0  0  0
    6.6292   -6.4042    0.0000 O   0  0  0  0  0  0  0  0  0  0  0  0
    5.8542   -6.1625    0.0000 O   0  0  0  0  0  0  0  0  0  0  0  0
   11.3542  -11.0917    0.0000 C   0  0  0  0  0  0  0  0  0  0  0  0
   11.3667   -8.2292    0.0000 O   0  0  0  0  0  0  0  0  0  0  0  0
    8.8875   -9.6417    0.0000 C   0  0  0  0  0  0  0  0  0  0  0  0
   12.1792   -5.6542    0.0000 C   0  0  0  0  0  0  0  0  0  0  0  0
    1.7542   -9.0417    0.0000 C   0  0  0  0  0  0  0  0  0  0  0  0
   10.9875   -6.0917    0.0000 O   0  0  0  0  0  0  0  0  0  0  0  0
   11.4667   -4.4042    0.0000 C   0  0  0  0  0  0  0  0  0  0  0  0
   11.4667   -5.2417    0.0000 C   0  0  0  0  0  0  0  0  0  0  0  0
    8.4792   -8.9167    0.0000 C   0  0  0  0  0  0  0  0  0  0  0  0
    4.2917   -4.4125    0.0000 C   0  0  0  0  0  0  0  0  0  0  0  0
    5.8792   -9.0167    0.0000 C   0  0  0  0  0  0  0  0  0  0  0  0
   12.6000  -10.3792    0.0000 C   0  0  0  0  0  0  0  0  0  0  0  0
    3.9792   -8.2167    0.0000 O   0  0  0  0  0  0  0  0  0  0  0  0
    5.0042   -4.0000    0.0000 C   0  0  0  0  0  0  0  0  0  0  0  0
    0.7125   -3.1875    0.0000 O   0  0  0  0  0  0  0  0  0  0  0  0
    5.7167   -1.1250    0.0000 O   0  0  0  0  0  0  0  0  0  0  0  0
   10.0292   -5.2417    0.0000 C   0  0  0  0  0  0  0  0  0  0  0  0
    5.4667   -9.7375    0.0000 C   0  0  0  0  0  0  0  0  0  0  0  0
   12.1792  -11.1042    0.0000 C   0  0  0  0  0  0  0  0  0  0  0  0
    3.7292  -12.4125    0.0000 O   0  0  0  0  0  0  0  0  0  0  0  0
    6.4292   -0.7042    0.0000 O   0  0  0  0  0  0  0  0  0  0  0  0
    1.4250   -2.7667    0.0000 O   0  0  0  0  0  0  0  0  0  0  0  0
    2.3042  -13.2500    0.0000 O   0  0  0  0  0  0  0  0  0  0  0  0
    4.2917   -1.1250    0.0000 C   0  0  0  0  0  0  0  0  0  0  0  0
    5.0042   -0.7125    0.0000 C   0  0  0  0  0  0  0  0  0  0  0  0
    2.8542   -1.9292    0.0000 O   0  0  0  0  0  0  0  0  0  0  0  0
    0.8750  -12.4292    0.0000 O   0  0  0  0  0  0  0  0  0  0  0  0
    7.8542    0.1333    0.0000 O   0  0  0  0  0  0  0  0  0  0  0  0
   13.4292   -8.9542    0.0000 N   0  0  0  0  0  0  0  0  0  0  0  0
    6.4292   -5.6542    0.0000 Cl  0  0  0  0  0  0  0  0  0  0  0  0
   10.7417   -3.1667    0.0000 Cl  0  0  0  0  0  0  0  0  0  0  0  0
    4.7917   -7.5000    0.0000 O   0  0  0  0  0  0  0  0  0  0  0  0
   10.7417   -5.6542    0.0000 C   0  0  0  0  0  0  0  0  0  0  0  0
    4.2292  -10.4542    0.0000 O   0  0  0  0  0  0  0  0  0  0  0  0
    4.2792   -2.7542    0.0000 C   0  0  0  0  0  0  0  0  0  0  0  0
    9.2875   -0.6917    0.0000 C   0  0  0  0  0  0  0  0  0  0  0  0
    0.8625  -10.7792    0.0000 C   0  0  0  0  0  0  0  0  0  0  0  0
   10.9292  -11.8042    0.0000 O   0  0  0  0  0  0  0  0  0  0  0  0
    0.9292   -9.0500    0.0000 O   0  0  0  0  0  0  0  0  0  0  0  0
    7.6542   -8.9042    0.0000 O   0  0  0  0  0  0  0  0  0  0  0  0
    5.0000   -3.1667    0.0000 O   0  0  0  0  0  0  0  0  0  0  0  0
   10.0042   -1.1042    0.0000 O   0  0  0  0  0  0  0  0  0  0  0  0
    0.2375  -11.3167    0.0000 O   0  0  0  0  0  0  0  0  0  0  0  0
    5.0042   -2.3625    0.0000 C   0  0  0  0  0  0  0  0  0  0  0  0
    0.0000   -4.4250    0.0000 C   0  0  0  0  0  0  0  0  0  0  0  0
    4.2917   -1.9500    0.0000 C   0  0  0  0  0  0  0  0  0  0  0  0
    5.0042    0.1125    0.0000 C   0  0  0  0  0  0  0  0  0  0  0  0
    4.2917    0.5250    0.0000 C   0  0  0  0  0  0  0  0  0  0  0  0
    2.8667    0.5333    0.0000 C   0  0  0  0  0  0  0  0  0  0  0  0
    3.5792    0.1208    0.0000 C   0  0  0  0  0  0  0  0  0  0  0  0
    2.1542    0.1208    0.0000 C   0  0  0  0  0  0  0  0  0  0  0  0
  2  6  1  0
  3  5  1  0
  1  4  1  0
  5 38  1  1
  6 39  1  1
  7  8  1  0
  1  8  1  6
 27  9  1  1
 33 10  1  6
 29 11  1  0
 52 12  1  0
 13 15  2  0
 14  4  1  0
 15 21  1  0
 16 10  1  0
 17  9  1  0
 18 12  1  0
 19 13  1  0
 20 30  1  0
 21  7  1  0
 22  3  1  0
 23  2  1  0
 24  1  1  0
 25 28  1  0
 26 18  1  0
 27 16  1  0
 28 50  1  0
 29 17  1  0
 30 45  1  0
 31 20  2  0
 32 11  1  0
 33 14  1  0
 34  6  1  0
 35  5  1  0
 36 12  1  0
 37 13  1  0
 38 20  1  0
 24 39  1  6
 40 27  1  0
 41 47  1  0
 42 49  1  0
 43 48  1  0
 44 31  1  0
 45 64  1  0
 29 46  1  1
 47 34  1  0
 48 36  1  0
 49 35  1  0
 50 32  1  0
 51 54  2  0
 52 37  1  0
 53 66  1  0
 54 33  1  0
 55 24  1  0
 56 53  1  0
  2 57  1  6
  3 58  1  6
 59 68  2  0
 21 60  1  6
 61 25  1  0
 62 30  2  0
 63 40  2  0
 64 95  2  0
 65 44  1  0
 66 75  2  0
 67 86  1  0
 68 56  1  0
 69 70  2  0
 70 55  1  0
 71 65  1  0
 72 19  2  0
 73 57  1  0
 74 58  1  0
 75 46  1  0
 76 15  1  0
 77 46  2  0
 78  8  2  0
 79 17  2  0
 80 16  2  0
 81 14  2  0
 82 56  2  0
 83 25  2  0
 84 90  2  0
 85 50  1  0
 86 76  2  0
 87 32  2  0
 88 71  2  0
 89114  2  0
 90 77  1  0
 91 55  2  0
 92 54  1  0
 93100  2  0
 94 60  2  0
 95 91  1  0
 96 73  2  0
 97 74  2  0
 98 65  2  0
 99 92  2  0
100 82  1  0
 18101  1  1
 22102  1  1
 23103  1  1
 26104  1  1
105127  1  0
106105  2  0
 41107  1  6
 43108  1  6
 42109  1  6
 61110  1  6
111 69  1  0
112 71  1  0
113 60  1  0
114 98  1  0
115 72  1  0
 47116  1  1
 49117  1  1
 48118  1  1
119 82  1  0
120 86  1  0
121 90  1  0
122116  1  0
123117  1  0
124118  1  0
125 74  1  0
126 73  1  0
127125  1  0
128106  1  0
129128  1  0
130131  1  0
131129  1  0
132130  1  0
 69 64  1  0
 19 51  1  0
 23 41  1  0
 99 72  1  0
 37 67  2  0
 62 40  1  0
 31 63  1  0
 43 26  1  0
 42 22  1  0
 66 84  1  0
 89 85  1  0
 88 89  1  0
 61 59  1  0
 59 93  1  0
M  END
>  <ID>  (1132) 


>  <MOLENAME>  (1132) 
TEICOPLANIN [A(2-1) shown]

>  <therap>  (1132) 
antibacterial

>  <ref>  (1132) 
J Antimicrob Chemother 14:441 (1984); Antimicrob Agents Chemother 29:52 (1986); J Hosp Infect 7 Suppl A:47 (1986)

>  <cas#>  (1132) 
61036-62-2

>  <source>  (1132) 
Actinoplanes teichomyceticus; MDL-507

>  <status>  (1132) 
USAN, INN, BAN

>  <tradename>  (1132) 
TARGOCID

>  <SMILES>  (1132) 
CCCCC/C=C/CCC(=O)N[C@H]1[C@H](Oc2c3cc4cc2Oc2ccc(cc2Cl)[C@@H](O[C@@H]2O[C@H](CO)[C@@H](O)[C@H](O)[C@H]2NC(C)=O)[C@@H]2NC(=O)[C@H](NC(=O)[C@@H]4NC(=O)[C@H]4NC(=O)C(Cc5ccc(O3)c(Cl)c5)NC(=O)[C@H](N)c3cc(c(O)cc3)Oc3cc4cc(O)c3)c3cc(c(O)cc3)-c3c(cc(O)cc3OC3O[C@H](CO)[C@@H](O)[C@H](O)[C@@H]3O)[C@@H](C(=O)O)NC2=O)O[C@H](CO)[C@@H](O)[C@@H]1O

>  <standardized_failed>  (1132) 
False

$$$$

     RDKit          2D

 18 18  0  0  0  0  0  0  0  0999 V2000
    6.3292    1.2500    0.0000 S   0  0  0  0  0  0  0  0  0  0  0  0
    3.3583    0.1875    0.0000 N   0  0  0  0  0  0  0  0  0  0  0  0
    4.0792    0.5958    0.0000 C   0  0  0  0  0  0  0  0  0  0  0  0
    2.6375    0.6083    0.0000 C   0  0  0  0  0  0  0  0  0  0  0  0
    1.9208    0.1875    0.0000 C   0  0  0  0  0  0  0  0  0  0  0  0
    4.0792    1.4167    0.0000 N   0  0  0  0  0  0  0  0  0  0  0  0
    6.9000    1.5833    0.0000 O   0  0  0  0  0  0  0  0  0  0  0  0
    5.7542    1.5833    0.0000 O   0  0  0  0  0  0  0  0  0  0  0  0
    3.3583   -0.6458    0.0000 C   0  0  0  0  0  0  0  0  0  0  0  0
    1.9167   -0.6458    0.0000 C   0  0  0  0  0  0  0  0  0  0  0  0
    5.8542    0.7833    0.0000 O   0  0  0  0  0  0  0  0  0  0  0  0
    6.7917    0.7833    0.0000 O   0  0  0  0  0  0  0  0  0  0  0  0
    2.6333   -1.0583    0.0000 C   0  0  0  0  0  0  0  0  0  0  0  0
    4.7917    0.1792    0.0000 N   0  0  0  0  0  0  0  0  0  0  0  0
    1.2042    0.6000    0.0000 C   0  0  0  0  0  0  0  0  0  0  0  0
    1.2042   -1.0542    0.0000 C   0  0  0  0  0  0  0  0  0  0  0  0
    0.4917    0.1875    0.0000 C   0  0  0  0  0  0  0  0  0  0  0  0
    0.4917   -0.6417    0.0000 C   0  0  0  0  0  0  0  0  0  0  0  0
  3  2  1  0
  4  2  1  0
  5  4  1  0
  6  3  2  0
  7  1  2  0
  8  1  2  0
  9  2  1  0
 10  5  2  0
 11  1  1  0
 12  1  1  0
 13  9  1  0
 14  3  1  0
 15  5  1  0
 16 10  1  0
 17 15  2  0
 18 17  1  0
 13 10  1  0
 16 18  2  0
M  END
>  <ID>  (1133) 


>  <MOLENAME>  (1133) 
DEBRISOQUIN SULFATE

>  <therap>  (1133) 
anti-hypertensive

>  <ref>  (1133) 
Biochem Pharmacol 18:891 (1969); Toxicol Appl Pharmacol 18:185 (1971)

>  <cas#>  (1133) 
581-88-4

>  <source>  (1133) 
synthetic; RO-5-3307/1

>  <status>  (1133) 
USAN, INN, BAN

>  <tradename>  (1133) 
DECLINAX

>  <SMILES>  (1133) 
N=C(N)N1CCc2c(cccc2)C1

>  <standardized_failed>  (1133) 
False

$$$$

     RDKit          2D

 14 14  0  0  0  0  0  0  0  0999 V2000
    4.2542   -5.2042    0.0000 C   0  0  0  0  0  0  0  0  0  0  0  0
    3.4292   -5.2042    0.0000 N   0  0  0  0  0  0  0  0  0  0  0  0
    4.6625   -4.4917    0.0000 O   0  0  0  0  0  0  0  0  0  0  0  0
    4.6667   -5.9167    0.0000 O   0  0  0  0  0  0  0  0  0  0  0  0
    3.0167   -4.4917    0.0000 C   0  0  0  0  0  0  0  0  0  0  0  0
    2.2000   -4.4958    0.0000 C   0  0  0  0  0  0  0  0  0  0  0  0
    6.7167   -6.6292    0.0000 O   0  0  0  0  0  0  0  0  0  0  0  0
    5.4875   -5.9167    0.0000 C   0  0  0  0  0  0  0  0  0  0  0  0
    5.9000   -6.6292    0.0000 C   0  0  0  0  0  0  0  0  0  0  0  0
    1.7875   -5.2083    0.0000 C   0  0  0  0  0  0  0  0  0  0  0  0
    1.7875   -3.7833    0.0000 C   0  0  0  0  0  0  0  0  0  0  0  0
    0.9625   -5.2083    0.0000 C   0  0  0  0  0  0  0  0  0  0  0  0
    0.9625   -3.7875    0.0000 C   0  0  0  0  0  0  0  0  0  0  0  0
    0.5542   -4.5000    0.0000 C   0  0  0  0  0  0  0  0  0  0  0  0
  2  1  1  0
  3  1  2  0
  4  1  1  0
  5  2  1  0
  6  5  1  0
  7  9  1  0
  8  4  1  0
  9  8  1  0
 10  6  2  0
 11  6  1  0
 12 10  1  0
 13 11  2  0
 14 12  2  0
 14 13  1  0
M  END
>  <ID>  (1134) 


>  <MOLENAME>  (1134) 
BURAMATE

>  <therap>  (1134) 
anticonvulsant, antipsychotic

>  <ref>  (1134) 
Med Chem Res 19:498 (2010)

>  <cas#>  (1134) 
4663-83-6

>  <source>  (1134) 
synthetic; AC-601, NSC-30223

>  <status>  (1134) 
USAN, INN

>  <tradename>  (1134) 
HYAMATE

>  <SMILES>  (1134) 
O=C(NCc1ccccc1)OCCO

>  <standardized_failed>  (1134) 
False

$$$$

     RDKit          2D

 22 24  0  0  0  0  0  0  0  0999 V2000
    0.8917    0.1083    0.0000 C   0  0  0  0  0  0  0  0  0  0  0  0
    0.1750   -0.3125    0.0000 C   0  0  0  0  0  0  0  0  0  0  0  0
    1.6125   -0.3125    0.0000 C   0  0  0  0  0  0  0  0  0  0  0  0
    0.8875   -1.5542    0.0000 C   0  0  0  0  0  0  0  0  0  0  0  0
    0.1667   -1.1417    0.0000 C   0  0  0  0  0  0  0  0  0  0  0  0
    1.6125   -1.1417    0.0000 C   0  0  0  0  0  0  0  0  0  0  0  0
    0.4750   -0.6042    0.0000 C   0  0  0  0  0  0  0  0  0  0  0  0
    1.1875   -1.0167    0.0000 C   0  0  0  0  0  0  0  0  0  0  0  0
    0.8917    0.8750    0.0000 C   0  0  0  0  0  0  0  0  0  0  0  0
    2.2375    2.4000    0.0000 N   0  0  0  0  0  0  0  0  0  0  0  0
    4.0167    1.3458    0.0000 Cl  0  0  0  0  0  0  0  0  0  0  0  0
   -0.5458    0.1000    0.0000 C   0  0  0  0  0  0  0  0  0  0  0  0
    2.3167    0.1000    0.0000 C   0  0  0  0  0  0  0  0  0  0  0  0
    2.3292   -1.5542    0.0000 C   0  0  0  0  0  0  0  0  0  0  0  0
   -0.5458   -1.5542    0.0000 C   0  0  0  0  0  0  0  0  0  0  0  0
    1.5667    2.0208    0.0000 C   0  0  0  0  0  0  0  0  0  0  0  0
    2.2417    3.1708    0.0000 C   0  0  0  0  0  0  0  0  0  0  0  0
    1.5667    1.2583    0.0000 C   0  0  0  0  0  0  0  0  0  0  0  0
   -1.2583   -1.1417    0.0000 C   0  0  0  0  0  0  0  0  0  0  0  0
   -1.2583   -0.3125    0.0000 C   0  0  0  0  0  0  0  0  0  0  0  0
    3.0417   -1.1417    0.0000 C   0  0  0  0  0  0  0  0  0  0  0  0
    3.0417   -0.3042    0.0000 C   0  0  0  0  0  0  0  0  0  0  0  0
  2  1  1  0
  3  1  1  0
  4  8  1  0
  5  2  2  0
  6  3  2  0
  7  1  1  0
  8  7  1  0
  9  1  1  0
 10 16  1  0
 12  2  1  0
 13  3  1  0
 14  6  1  0
 15  5  1  0
 16 18  1  0
 17 10  1  0
 18  9  1  0
 19 20  1  0
 20 12  2  0
 21 22  1  0
 22 13  2  0
  6  4  1  0
  5  4  1  0
 14 21  2  0
 19 15  2  0
M  END
>  <ID>  (1135) 


>  <MOLENAME>  (1135) 
MAPROTILINE HYDROCHLORIDE

>  <therap>  (1135) 
antidepressant

>  <ref>  (1135) 
Bull Chim Farm 112:782 (1953); Drugs 13:321 (!977)

>  <cas#>  (1135) 
10347-81-6, 10262-69-8 (maprotiline)

>  <source>  (1135) 
synthetic; Ba-34276

>  <status>  (1135) 
USAN, INN, BAN

>  <tradename>  (1135) 
LUDIOLMIL

>  <SMILES>  (1135) 
CNCCCC12CCC(c3c1cccc3)c1c2cccc1

>  <standardized_failed>  (1135) 
False

$$$$

     RDKit          2D

 30 31  0  0  0  0  0  0  0  0999 V2000
    5.4750   -4.9042    0.0000 N   0  0  0  0  0  0  0  0  0  0  0  0
    7.1292   -4.9042    0.0000 N   0  0  0  0  0  0  0  0  0  0  0  0
    4.6500   -4.9042    0.0000 C   0  0  0  0  0  0  0  0  0  0  0  0
    4.2375   -4.1917    0.0000 C   0  0  0  0  0  0  0  0  0  0  0  0
    5.8875   -4.1917    0.0000 C   0  0  0  0  0  0  0  0  0  0  0  0
    5.8875   -5.6167    0.0000 C   0  0  0  0  0  0  0  0  0  0  0  0
    7.9542   -4.9042    0.0000 C   0  0  0  0  0  0  0  0  0  0  0  0
    4.2375   -5.6250    0.0000 C   0  0  0  0  0  0  0  0  0  0  0  0
    8.3667   -5.6167    0.0000 C   0  0  0  0  0  0  0  0  0  0  0  0
    4.6500   -3.4792    0.0000 C   0  0  0  0  0  0  0  0  0  0  0  0
    3.4042   -4.1917    0.0000 C   0  0  0  0  0  0  0  0  0  0  0  0
    6.7167   -5.6167    0.0000 C   0  0  0  0  0  0  0  0  0  0  0  0
    6.7167   -4.1917    0.0000 C   0  0  0  0  0  0  0  0  0  0  0  0
    7.9542   -6.3292    0.0000 C   0  0  0  0  0  0  0  0  0  0  0  0
    3.4042   -2.7667    0.0000 C   0  0  0  0  0  0  0  0  0  0  0  0
    2.9917   -3.4792    0.0000 C   0  0  0  0  0  0  0  0  0  0  0  0
    4.2375   -2.7667    0.0000 C   0  0  0  0  0  0  0  0  0  0  0  0
    2.9875   -2.0417    0.0000 Cl  0  0  0  0  0  0  0  0  0  0  0  0
    5.4250   -3.2792    0.0000 Cl  0  0  0  0  0  0  0  0  0  0  0  0
    7.8875   -3.9667    0.0000 Cl  0  0  0  0  0  0  0  0  0  0  0  0
    8.3667   -7.0500    0.0000 C   0  0  0  0  0  0  0  0  0  0  0  0
    9.6042   -6.3292    0.0000 C   0  0  0  0  0  0  0  0  0  0  0  0
    9.1917   -5.6167    0.0000 C   0  0  0  0  0  0  0  0  0  0  0  0
    4.6500   -6.3375    0.0000 C   0  0  0  0  0  0  0  0  0  0  0  0
    3.4042   -5.6250    0.0000 C   0  0  0  0  0  0  0  0  0  0  0  0
    9.1917   -7.0500    0.0000 C   0  0  0  0  0  0  0  0  0  0  0  0
    7.9417   -7.7667    0.0000 C   0  0  0  0  0  0  0  0  0  0  0  0
    2.9917   -6.3375    0.0000 C   0  0  0  0  0  0  0  0  0  0  0  0
    4.2375   -7.0542    0.0000 C   0  0  0  0  0  0  0  0  0  0  0  0
    3.4042   -7.0542    0.0000 C   0  0  0  0  0  0  0  0  0  0  0  0
  2 12  1  0
  3  1  1  0
  4  3  1  0
  5  1  1  0
  6  1  1  0
  7  2  1  0
  8  3  1  0
  9  7  1  0
 10  4  2  0
 11  4  1  0
 12  6  1  0
 13  5  1  0
 14  9  2  0
 15 16  1  0
 16 11  2  0
 17 10  1  0
 18 15  1  0
 21 14  1  0
 22 23  2  0
 23  9  1  0
 24  8  2  0
 25  8  1  0
 26 22  1  0
 27 21  1  0
 28 25  2  0
 29 24  1  0
 30 28  1  0
  2 13  1  0
 15 17  2  0
 30 29  2  0
 26 21  2  0
M  END
>  <ID>  (1136) 


>  <MOLENAME>  (1136) 
MECLIZINE HYDROCHLORIDE

>  <therap>  (1136) 
antiemetic

>  <ref>  (1136) 
Ind Chin Belg 17:735 (1952); Arch Neurol 27:129 (1972)

>  <cas#>  (1136) 
31884-77-2, 1104-22-9 [anhydrous], 569-65-3 [meclizine]

>  <source>  (1136) 
synthetic

>  <status>  (1136) 
USP, INN, BAN, JAN

>  <tradename>  (1136) 
ANTIVERT

>  <SMILES>  (1136) 
Cc1cccc(CN2CCN(C(c3ccccc3)c3ccc(Cl)cc3)CC2)c1

>  <standardized_failed>  (1136) 
False

$$$$

     RDKit          2D

 23 26  0  0  0  0  0  0  0  0999 V2000
    7.0542   -5.5375    0.0000 C   0  0  0  0  0  0  0  0  0  0  0  0
    7.0542   -6.2875    0.0000 C   0  0  0  0  0  0  0  0  0  0  0  0
    6.4042   -6.6625    0.0000 C   0  0  0  0  0  0  0  0  0  0  0  0
    5.7542   -6.2875    0.0000 C   0  0  0  0  0  0  0  0  0  0  0  0
    5.1125   -6.6625    0.0000 C   0  0  0  0  0  0  0  0  0  0  0  0
    7.7667   -5.3042    0.0000 C   0  0  0  0  0  0  0  0  0  0  0  0
    5.1125   -7.4125    0.0000 C   0  0  0  0  0  0  0  0  0  0  0  0
    8.5167   -5.3042    0.0000 C   0  0  0  0  0  0  0  0  0  0  0  0
    6.4000   -5.1625    0.0000 C   0  0  0  0  0  0  0  0  0  0  0  0
    5.7542   -5.5375    0.0000 C   0  0  0  0  0  0  0  0  0  0  0  0
    7.7667   -6.5125    0.0000 C   0  0  0  0  0  0  0  0  0  0  0  0
    6.4042   -7.4125    0.0000 C   0  0  0  0  0  0  0  0  0  0  0  0
    9.2667   -5.3000    0.0000 C   0  0  0  0  0  0  0  0  0  0  0  0
    4.4625   -6.2875    0.0000 C   0  0  0  0  0  0  0  0  0  0  0  0
    5.7542   -7.7875    0.0000 C   0  0  0  0  0  0  0  0  0  0  0  0
    8.2042   -5.9000    0.0000 C   0  0  0  0  0  0  0  0  0  0  0  0
    4.4625   -7.7875    0.0000 C   0  0  0  0  0  0  0  0  0  0  0  0
    3.8125   -7.4125    0.0000 C   0  0  0  0  0  0  0  0  0  0  0  0
    8.1375   -4.6542    0.0000 O   0  0  0  0  0  0  0  0  0  0  0  0
    3.8125   -6.6625    0.0000 C   0  0  0  0  0  0  0  0  0  0  0  0
    7.0542   -4.7875    0.0000 C   0  0  0  0  0  0  0  0  0  0  0  0
    3.1625   -7.7875    0.0000 O   0  0  0  0  0  0  0  0  0  0  0  0
    3.1625   -8.5375    0.0000 C   0  0  0  0  0  0  0  0  0  0  0  0
  2  1  1  0
  3  2  1  0
  4 10  1  0
  5  4  1  0
  6  1  1  0
  7  5  2  0
  6  8  1  0
  9  1  1  0
 10  9  1  0
 11  2  1  0
 12  3  1  0
 13  8  3  0
 14  5  1  0
 15 12  1  0
 16  6  1  0
 17  7  1  0
 18 20  1  0
  6 19  1  1
 20 14  2  0
  1 21  1  1
 22 18  1  0
 23 22  1  0
 11 16  1  0
  3  4  1  0
  7 15  1  0
 17 18  2  0
M  END
>  <ID>  (1137) 


>  <MOLENAME>  (1137) 
MESTRANOL

>  <therap>  (1137) 
estrogen, with progesterone as oral contraceptive

>  <ref>  (1137) 
Fertil. Steril. (1965), 16, 97-100; Appl. Thera. (1964), 6, 511-8; JAMA, J. Am. Med. Assoc. (1964), 188, 1115-20

>  <cas#>  (1137) 
72-33-3

>  <source>  (1137) 
semisynthetic; EE3-ME, 33355

>  <status>  (1137) 
USP, INN, BAN, JAN

>  <tradename>  (1137) 
nan

>  <SMILES>  (1137) 
C#C[C@]1(O)CCC2C3CCc4c(ccc(OC)c4)C3CC[C@@]21C

>  <standardized_failed>  (1137) 
False

$$$$

     RDKit          2D

 12 10  0  0  0  0  0  0  0  0999 V2000
    6.3542   -2.8417    0.0000 N   0  0  0  0  0  0  0  0  0  0  0  0
    5.0625   -5.0917    0.0000 C   0  0  0  0  0  0  0  0  0  0  0  0
    5.7125   -4.7167    0.0000 O   0  0  0  0  0  0  0  0  0  0  0  0
    6.3417   -1.6167    0.0000 Cl  0  0  0  0  0  0  0  0  0  0  0  0
    4.4125   -4.7167    0.0000 O   0  0  0  0  0  0  0  0  0  0  0  0
    6.3542   -3.5917    0.0000 C   0  0  0  0  0  0  0  0  0  0  0  0
    5.7125   -3.9667    0.0000 C   0  0  0  0  0  0  0  0  0  0  0  0
    6.3542   -2.0917    0.0000 C   0  0  0  0  0  0  0  0  0  0  0  0
    5.6042   -2.8417    0.0000 C   0  0  0  0  0  0  0  0  0  0  0  0
    7.1042   -2.8417    0.0000 C   0  0  0  0  0  0  0  0  0  0  0  0
    5.0625   -5.8417    0.0000 C   0  0  0  0  0  0  0  0  0  0  0  0
    5.0542   -3.5917    0.0000 C   0  0  0  0  0  0  0  0  0  0  0  0
  2  3  1  0
  3  7  1  0
  5  2  2  0
  6  1  1  0
  7  6  1  0
  8  1  1  0
  9  1  1  0
 10  1  1  0
 11  2  1  0
 12  7  1  0
M  CHG  2   1   1   4  -1
M  END
>  <ID>  (1138) 


>  <MOLENAME>  (1138) 
METHACHOLINE CHLORIDE

>  <therap>  (1138) 
cholinergic, diagnostic aid

>  <ref>  (1138) 
Chest (2010), 138(2, Suppl.), 18S-24S; Allergy (2001), 56(12), 1114-1120; Br. J. Pharmacol. (1970), 38(4), 758-70

>  <cas#>  (1138) 
62-51-1, 55-92-5 [methacholine]

>  <source>  (1138) 
synthetic

>  <status>  (1138) 
USP, INN, BAN

>  <tradename>  (1138) 
PROVOCHOLINE

>  <SMILES>  (1138) 
CC(=O)OC(C)C[N+](C)(C)C

>  <standardized_failed>  (1138) 
False

$$$$

     RDKit          2D

 21 20  0  0  0  0  0  0  0  0999 V2000
    5.9542   -5.8375    0.0000 C   0  0  0  0  0  0  0  0  0  0  0  0
    5.9542   -6.6625    0.0000 C   0  0  0  0  0  0  0  0  0  0  0  0
    5.2417   -5.4250    0.0000 C   0  0  0  0  0  0  0  0  0  0  0  0
    6.6792   -5.4167    0.0000 C   0  0  0  0  0  0  0  0  0  0  0  0
    5.2417   -7.0750    0.0000 C   0  0  0  0  0  0  0  0  0  0  0  0
    4.5292   -5.8375    0.0000 C   0  0  0  0  0  0  0  0  0  0  0  0
    4.5292   -6.6625    0.0000 C   0  0  0  0  0  0  0  0  0  0  0  0
    7.3917   -5.8292    0.0000 O   0  0  0  0  0  0  0  0  0  0  0  0
    6.6792   -4.5917    0.0000 N   0  0  0  0  0  0  0  0  0  0  0  0
    3.8042   -7.0792    0.0000 N   0  0  0  0  0  0  0  0  0  0  0  0
    3.8042   -5.4250    0.0000 Cl  0  0  0  0  0  0  0  0  0  0  0  0
    6.6792   -7.0875    0.0000 O   0  0  0  0  0  0  0  0  0  0  0  0
    8.1042   -2.9375    0.0000 N   0  0  0  0  0  0  0  0  0  0  0  0
    9.7625   -2.8417    0.0000 Cl  0  0  0  0  0  0  0  0  0  0  0  0
    7.3917   -4.1792    0.0000 C   0  0  0  0  0  0  0  0  0  0  0  0
    7.3917   -3.3500    0.0000 C   0  0  0  0  0  0  0  0  0  0  0  0
    8.1042   -2.1042    0.0000 C   0  0  0  0  0  0  0  0  0  0  0  0
    8.8167   -3.3500    0.0000 C   0  0  0  0  0  0  0  0  0  0  0  0
    6.6667   -7.9167    0.0000 C   0  0  0  0  0  0  0  0  0  0  0  0
    8.8167   -1.6917    0.0000 C   0  0  0  0  0  0  0  0  0  0  0  0
    8.8167   -4.1792    0.0000 C   0  0  0  0  0  0  0  0  0  0  0  0
  2  1  2  0
  3  1  1  0
  4  1  1  0
  5  2  1  0
  6  3  2  0
  7  6  1  0
  8  4  2  0
  9  4  1  0
 10  7  1  0
 11  6  1  0
 12  2  1  0
 13 16  1  0
 15  9  1  0
 16 15  1  0
 17 13  1  0
 18 13  1  0
 19 12  1  0
 20 17  1  0
 21 18  1  0
  5  7  2  0
M  END
>  <ID>  (1139) 


>  <MOLENAME>  (1139) 
METOCLOPRAMIDE HYDROCHLORIDE

>  <therap>  (1139) 
antiemetic

>  <ref>  (1139) 
Adv Biochem Psychopharmacol 35:163 (1982); Drugs 25:451 (1983)

>  <cas#>  (1139) 
54143-57-6, 7232-21-5 [anhydrous], 364-62-5 [metoclopramide]

>  <source>  (1139) 
synthetic; AHR-3070C

>  <status>  (1139) 
USP, INN, BAN, JAN

>  <tradename>  (1139) 
MAXOLON

>  <SMILES>  (1139) 
CCN(CC)CCNC(=O)c1c(OC)cc(N)c(Cl)c1

>  <standardized_failed>  (1139) 
False

$$$$

     RDKit          2D

 29 28  0  0  0  0  0  0  0  0999 V2000
    4.4792   -3.0500    0.0000 C   0  0  0  0  0  0  0  0  0  0  0  0
    4.4792   -3.7250    0.0000 C   0  0  0  0  0  0  0  0  0  0  0  0
    5.0542   -2.7125    0.0000 C   0  0  0  0  0  0  0  0  0  0  0  0
    3.8917   -4.0625    0.0000 C   0  0  0  0  0  0  0  0  0  0  0  0
    5.0542   -2.0375    0.0000 O   0  0  0  0  0  0  0  0  0  0  0  0
    3.3167   -3.7250    0.0000 O   0  0  0  0  0  0  0  0  0  0  0  0
    8.4917   -1.7875    0.0000 N   0  0  0  0  0  0  0  0  0  0  0  0
    5.0542   -4.0625    0.0000 O   0  0  0  0  0  0  0  0  0  0  0  0
    3.8917   -2.7125    0.0000 O   0  0  0  0  0  0  0  0  0  0  0  0
    6.2417   -0.4917    0.0000 O   0  0  0  0  0  0  0  0  0  0  0  0
    7.3667   -1.1375    0.0000 C   0  0  0  0  0  0  0  0  0  0  0  0
    3.8917   -4.7292    0.0000 O   0  0  0  0  0  0  0  0  0  0  0  0
    5.6292   -3.0500    0.0000 O   0  0  0  0  0  0  0  0  0  0  0  0
    5.4917   -0.4917    0.0000 C   0  0  0  0  0  0  0  0  0  0  0  0
    7.7417   -1.7875    0.0000 C   0  0  0  0  0  0  0  0  0  0  0  0
    6.6167   -1.1375    0.0000 C   0  0  0  0  0  0  0  0  0  0  0  0
    3.9917   -0.4917    0.0000 C   0  0  0  0  0  0  0  0  0  0  0  0
    5.1167    0.1583    0.0000 C   0  0  0  0  0  0  0  0  0  0  0  0
    5.1167   -1.1375    0.0000 C   0  0  0  0  0  0  0  0  0  0  0  0
    4.3667    0.1583    0.0000 C   0  0  0  0  0  0  0  0  0  0  0  0
    4.3667   -1.1375    0.0000 C   0  0  0  0  0  0  0  0  0  0  0  0
    7.7417   -0.4875    0.0000 O   0  0  0  0  0  0  0  0  0  0  0  0
    8.8667   -2.4292    0.0000 C   0  0  0  0  0  0  0  0  0  0  0  0
    2.1167   -1.1375    0.0000 O   0  0  0  0  0  0  0  0  0  0  0  0
    3.2417   -0.4917    0.0000 C   0  0  0  0  0  0  0  0  0  0  0  0
    2.8667   -1.1375    0.0000 C   0  0  0  0  0  0  0  0  0  0  0  0
    1.7417   -1.7875    0.0000 C   0  0  0  0  0  0  0  0  0  0  0  0
    8.4917   -3.0792    0.0000 C   0  0  0  0  0  0  0  0  0  0  0  0
    9.6167   -2.4292    0.0000 C   0  0  0  0  0  0  0  0  0  0  0  0
  2  1  1  0
  3  1  1  0
  4  2  1  0
  5  3  2  0
  6  4  2  0
  8  2  1  0
  9  1  1  0
 10 16  1  0
 11 15  1  0
 12  4  1  0
 13  3  1  0
 14 10  1  0
 15  7  1  0
 16 11  1  0
 17 21  1  0
 18 14  2  0
 19 14  1  0
 20 18  1  0
 21 19  2  0
 22 11  1  0
 23  7  1  0
 24 26  1  0
 25 17  1  0
 26 25  1  0
 27 24  1  0
 28 23  1  0
 29 23  1  0
 17 20  2  0
M  END
>  <ID>  (1140) 


>  <MOLENAME>  (1140) 
METOPROLOL TARTRATE

>  <therap>  (1140) 
antihypertensive, antianginal

>  <ref>  (1140) 
J. Cardiovasc. Pharmacol. (1987), 10 Suppl , 2S80-5; Acta Pharmacol. Toxicol. Suppl. (1975), 36(5), 7-23; Life Sci. (1973), 12(3)(Pt. 1), 107-19

>  <cas#>  (1140) 
56392-17-7, 37350-58-6 [metroprolol]

>  <source>  (1140) 
synthetic; CGP-2175E

>  <status>  (1140) 
USP, JAN

>  <tradename>  (1140) 
LOPRESSOR

>  <SMILES>  (1140) 
COCCc1ccc(OCC(O)CNC(C)C)cc1

>  <standardized_failed>  (1140) 
False

$$$$

     RDKit          2D

 33 35  0  0  0  0  0  0  0  0999 V2000
    8.1792    0.6167    0.0000 C   0  0  0  0  0  0  0  0  0  0  0  0
    3.2000   -0.6208    0.0000 C   0  0  0  0  0  0  0  0  0  0  0  0
    3.9125   -0.2042    0.0000 C   0  0  0  0  0  0  0  0  0  0  0  0
    3.2000   -1.4500    0.0000 C   0  0  0  0  0  0  0  0  0  0  0  0
    3.9125   -1.8583    0.0000 N   0  0  0  0  0  0  0  0  0  0  0  0
    8.8917    1.0292    0.0000 C   0  0  0  0  0  0  0  0  0  0  0  0
    8.1792   -0.2000    0.0000 C   0  0  0  0  0  0  0  0  0  0  0  0
    4.6250   -0.6167    0.0000 N   0  0  0  0  0  0  0  0  0  0  0  0
    5.3375   -0.2042    0.0000 C   0  0  0  0  0  0  0  0  0  0  0  0
    7.4667    1.0250    0.0000 C   0  0  0  0  0  0  0  0  0  0  0  0
    7.4708   -0.6083    0.0000 C   0  0  0  0  0  0  0  0  0  0  0  0
    3.9083    0.6208    0.0000 C   0  0  0  0  0  0  0  0  0  0  0  0
    8.8917    1.8542    0.0000 O   0  0  0  0  0  0  0  0  0  0  0  0
    5.3333    0.6208    0.0000 O   0  0  0  0  0  0  0  0  0  0  0  0
    6.7625   -0.1958    0.0000 C   0  0  0  0  0  0  0  0  0  0  0  0
    6.0542   -0.6083    0.0000 C   0  0  0  0  0  0  0  0  0  0  0  0
    6.7625    0.6167    0.0000 C   0  0  0  0  0  0  0  0  0  0  0  0
    9.6083    0.6167    0.0000 O   0  0  0  0  0  0  0  0  0  0  0  0
    8.9000   -0.6042    0.0000 O   0  0  0  0  0  0  0  0  0  0  0  0
    2.4833   -0.2083    0.0000 C   0  0  0  0  0  0  0  0  0  0  0  0
    3.9125   -2.6875    0.0000 C   0  0  0  0  0  0  0  0  0  0  0  0
    4.6250   -1.4458    0.0000 C   0  0  0  0  0  0  0  0  0  0  0  0
    2.4833   -1.8625    0.0000 C   0  0  0  0  0  0  0  0  0  0  0  0
    3.1917    1.0292    0.0000 C   0  0  0  0  0  0  0  0  0  0  0  0
    8.9125   -1.4250    0.0000 C   0  0  0  0  0  0  0  0  0  0  0  0
    3.1917    1.8542    0.0000 C   0  0  0  0  0  0  0  0  0  0  0  0
    2.4792    0.6167    0.0000 C   0  0  0  0  0  0  0  0  0  0  0  0
    1.7708   -0.6250    0.0000 C   0  0  0  0  0  0  0  0  0  0  0  0
    5.3417   -1.8625    0.0000 C   0  0  0  0  0  0  0  0  0  0  0  0
    4.6250   -3.0958    0.0000 C   0  0  0  0  0  0  0  0  0  0  0  0
    1.7708   -1.4500    0.0000 C   0  0  0  0  0  0  0  0  0  0  0  0
    9.6333   -1.8292    0.0000 C   0  0  0  0  0  0  0  0  0  0  0  0
    5.3417   -2.6875    0.0000 C   0  0  0  0  0  0  0  0  0  0  0  0
  2  3  1  0
  3  8  1  0
  4  2  1  0
  5  4  1  0
  6  1  1  0
  7  1  2  0
  8  9  1  0
  9 16  1  0
 10  1  1  0
 11  7  1  0
  3 12  1  6
 13  6  2  0
 14  9  2  0
 15 17  1  0
 16 15  1  0
 17 10  2  0
 18  6  1  0
 19  7  1  0
 20  2  2  0
 21  5  1  0
 22  5  1  0
 23  4  2  0
 24 12  1  0
 25 19  1  0
 26 24  1  0
 27 24  1  0
 28 20  1  0
 29 22  1  0
 30 21  1  0
 31 28  2  0
 32 25  1  0
 33 30  1  0
 11 15  2  0
 23 31  1  0
 29 33  1  0
M  END
>  <ID>  (1141) 


>  <MOLENAME>  (1141) 
REPAGLINIDE

>  <therap>  (1141) 
antidiabetic

>  <ref>  (1141) 
eur J Clin Pharmacol 45:113 (1993); Diabetologia 37:703 (1994)

>  <cas#>  (1141) 
135062-02-1

>  <source>  (1141) 
synthetic; AG-EE-623-ZW

>  <status>  (1141) 
USP, INN, BAN

>  <tradename>  (1141) 
PRANDIN

>  <SMILES>  (1141) 
CCOc1c(C(=O)O)ccc(CC(=O)N[C@@H](CC(C)C)c2ccccc2N2CCCCC2)c1

>  <standardized_failed>  (1141) 
False

$$$$

     RDKit          2D

 29 30  0  0  0  0  0  0  0  0999 V2000
    5.1125   -1.6875    0.0000 N   0  0  0  0  0  0  0  0  0  0  0  0
    5.1125   -2.5167    0.0000 C   0  0  0  0  0  0  0  0  0  0  0  0
    3.6875   -1.7000    0.0000 C   0  0  0  0  0  0  0  0  0  0  0  0
    4.3917   -1.2792    0.0000 C   0  0  0  0  0  0  0  0  0  0  0  0
    4.4000   -2.9375    0.0000 N   0  0  0  0  0  0  0  0  0  0  0  0
    3.6875   -2.5250    0.0000 C   0  0  0  0  0  0  0  0  0  0  0  0
    2.9667   -1.2875    0.0000 C   0  0  0  0  0  0  0  0  0  0  0  0
    2.9667   -2.9375    0.0000 C   0  0  0  0  0  0  0  0  0  0  0  0
    9.3875   -2.5167    0.0000 C   0  0  0  0  0  0  0  0  0  0  0  0
    2.2542   -1.7000    0.0000 C   0  0  0  0  0  0  0  0  0  0  0  0
    2.2542   -2.5250    0.0000 C   0  0  0  0  0  0  0  0  0  0  0  0
    5.8250   -2.9250    0.0000 N   0  0  0  0  0  0  0  0  0  0  0  0
   10.1000   -2.9250    0.0000 C   0  0  0  0  0  0  0  0  0  0  0  0
    9.3875   -1.6917    0.0000 O   0  0  0  0  0  0  0  0  0  0  0  0
   10.8125   -2.5167    0.0000 O   0  0  0  0  0  0  0  0  0  0  0  0
    4.3875   -0.4542    0.0000 N   0  0  0  0  0  0  0  0  0  0  0  0
    8.6750   -2.9250    0.0000 N   0  0  0  0  0  0  0  0  0  0  0  0
    1.5417   -1.2875    0.0000 O   0  0  0  0  0  0  0  0  0  0  0  0
    1.5375   -2.9375    0.0000 O   0  0  0  0  0  0  0  0  0  0  0  0
    6.6500   -0.4042    0.0000 Cl  0  0  0  0  0  0  0  0  0  0  0  0
    7.2500   -2.9250    0.0000 C   0  0  0  0  0  0  0  0  0  0  0  0
    6.5375   -2.5167    0.0000 C   0  0  0  0  0  0  0  0  0  0  0  0
    7.9625   -2.5167    0.0000 C   0  0  0  0  0  0  0  0  0  0  0  0
    5.8250   -3.7542    0.0000 C   0  0  0  0  0  0  0  0  0  0  0  0
   11.4250   -3.0625    0.0000 C   0  0  0  0  0  0  0  0  0  0  0  0
   10.2708   -3.7375    0.0000 C   0  0  0  0  0  0  0  0  0  0  0  0
    0.8250   -2.5250    0.0000 C   0  0  0  0  0  0  0  0  0  0  0  0
    1.5417   -0.4625    0.0000 C   0  0  0  0  0  0  0  0  0  0  0  0
   11.1000   -3.8167    0.0000 C   0  0  0  0  0  0  0  0  0  0  0  0
  2  1  2  0
  3  4  2  0
  4  1  1  0
  5  2  1  0
  6  3  1  0
  7  3  1  0
  8  6  1  0
  9 17  1  0
 10  7  2  0
 11 10  1  0
 12  2  1  0
 13  9  1  0
 14  9  2  0
 15 13  1  0
 16  4  1  0
 17 23  1  0
 18 10  1  0
 19 11  1  0
 21 22  1  0
 22 12  1  0
 23 21  1  0
 24 12  1  0
 25 15  1  0
 26 13  1  0
 27 19  1  0
 28 18  1  0
 29 26  1  0
  6  5  2  0
  8 11  2  0
 29 25  1  0
M  END
>  <ID>  (1142) 


>  <MOLENAME>  (1142) 
ALFUZOSIN HYDROCHLORIDE

>  <therap>  (1142) 
alpha(1)-adrenergic blocker

>  <ref>  (1142) 
Br J Clin Pharmacol 25:417 (1988); Expert Opin Pharmacother 4:2057 (2003)

>  <cas#>  (1142) 
81403-80-7

>  <source>  (1142) 
synthetic; SL-77499

>  <status>  (1142) 
USAN, INN, BAN

>  <tradename>  (1142) 
UROXATRAL

>  <SMILES>  (1142) 
COc1cc2nc(N(C)CCCNC(=O)C3CCCO3)nc(N)c2cc1OC

>  <standardized_failed>  (1142) 
False

$$$$

     RDKit          2D

 13 13  0  0  0  0  0  0  0  0999 V2000
    7.0667   -4.0792    0.0000 C   0  0  0  0  0  0  0  0  0  0  0  0
    6.9292   -3.2667    0.0000 C   0  0  0  0  0  0  0  0  0  0  0  0
    6.1792   -2.9000    0.0000 N   0  0  0  0  0  0  0  0  0  0  0  0
    7.8792   -4.1917    0.0000 N   0  0  0  0  0  0  0  0  0  0  0  0
    7.6542   -2.8875    0.0000 N   0  0  0  0  0  0  0  0  0  0  0  0
    6.1292   -2.0667    0.0000 N   0  0  0  0  0  0  0  0  0  0  0  0
    6.5042   -4.6667    0.0000 C   0  0  0  0  0  0  0  0  0  0  0  0
    8.2417   -3.4542    0.0000 C   0  0  0  0  0  0  0  0  0  0  0  0
    6.7375   -5.4625    0.0000 O   0  0  0  0  0  0  0  0  0  0  0  0
    5.4000   -1.6917    0.0000 N   0  0  0  0  0  0  0  0  0  0  0  0
    5.7125   -4.4750    0.0000 N   0  0  0  0  0  0  0  0  0  0  0  0
    5.3542   -0.8667    0.0000 C   0  0  0  0  0  0  0  0  0  0  0  0
    4.7042   -2.1417    0.0000 C   0  0  0  0  0  0  0  0  0  0  0  0
  2  1  2  0
  3  2  1  0
  4  1  1  0
  5  2  1  0
  6  3  2  0
  7  1  1  0
  8  4  2  0
  9  7  2  0
 10  6  1  0
 11  7  1  0
 12 10  1  0
 13 10  1  0
  5  8  1  0
M  END
>  <ID>  (1143) 


>  <MOLENAME>  (1143) 
DACARBAZINE

>  <therap>  (1143) 
antineoplastic

>  <ref>  (1143) 
Biochem Pharmacol 11:674 (1962); 019:911 (1970); Eur J Cancer 8:85 (1972)

>  <cas#>  (1143) 
4342-03-4

>  <source>  (1143) 
synthetic

>  <status>  (1143) 
USP, INN, BAN, JAN

>  <tradename>  (1143) 
DTIC-DOME

>  <SMILES>  (1143) 
CN(C)/N=N/c1c(C(N)=O)nc[nH]1

>  <standardized_failed>  (1143) 
False

$$$$

     RDKit          2D

 10  9  0  0  0  0  0  0  0  0999 V2000
    1.2375   -1.7500    0.0000 C   0  0  0  0  0  0  0  0  0  0  0  0
   -1.5208   -1.2042    0.0000 C   0  0  0  0  0  0  0  0  0  0  0  0
    1.2375   -0.9292    0.0000 O   0  0  0  0  0  0  0  0  0  0  0  0
    0.4625   -2.0292    0.0000 C   0  0  0  0  0  0  0  0  0  0  0  0
   -1.2333   -0.4000    0.0000 O   0  0  0  0  0  0  0  0  0  0  0  0
   -0.2208   -1.5667    0.0000 C   0  0  0  0  0  0  0  0  0  0  0  0
   -1.0000   -1.8417    0.0000 C   0  0  0  0  0  0  0  0  0  0  0  0
   -2.3375   -1.3375    0.0000 N   0  0  0  0  0  0  0  0  0  0  0  0
    1.9125   -2.2250    0.0000 O   0  0  0  0  0  0  0  0  0  0  0  0
    0.4500   -2.8167    0.0000 N   0  0  0  0  0  0  0  0  0  0  0  0
  2  7  1  0
  3  1  2  0
  4  1  1  0
  5  2  2  0
  4  6  1  0
  7  6  1  0
  8  2  1  0
  9  1  1  0
  4 10  1  1
M  END
>  <ID>  (1144) 


>  <MOLENAME>  (1144) 
GLUTAMINE (L)

>  <therap>  (1144) 
dietary supplement

>  <ref>  (1144) 
Pharmacol Res 30:61 (1994)

>  <cas#>  (1144) 
56-85-9

>  <source>  (1144) 
beetroot; widely distributed in plants 

>  <status>  (1144) 
USP, INN

>  <tradename>  (1144) 
NUTRESTORE

>  <SMILES>  (1144) 
NC(=O)CC[C@H](N)C(=O)O

>  <standardized_failed>  (1144) 
False

$$$$

     RDKit          2D

 31 34  0  0  0  0  0  0  0  0999 V2000
    6.1292   -6.3417    0.0000 C   0  0  0  0  0  0  0  0  0  0  0  0
    6.9167   -6.0917    0.0000 C   0  0  0  0  0  0  0  0  0  0  0  0
    3.9875   -7.5875    0.0000 C   0  0  0  0  0  0  0  0  0  0  0  0
    6.1292   -7.1750    0.0000 C   0  0  0  0  0  0  0  0  0  0  0  0
    3.9875   -8.4125    0.0000 C   0  0  0  0  0  0  0  0  0  0  0  0
    4.7000   -7.1750    0.0000 C   0  0  0  0  0  0  0  0  0  0  0  0
    5.4167   -7.5875    0.0000 C   0  0  0  0  0  0  0  0  0  0  0  0
    3.2750   -8.8250    0.0000 C   0  0  0  0  0  0  0  0  0  0  0  0
    5.4125   -5.9292    0.0000 C   0  0  0  0  0  0  0  0  0  0  0  0
    7.4000   -6.7542    0.0000 C   0  0  0  0  0  0  0  0  0  0  0  0
    7.7875   -6.0917    0.0000 O   0  0  0  0  0  0  0  0  0  0  0  0
    6.9167   -7.4292    0.0000 C   0  0  0  0  0  0  0  0  0  0  0  0
    4.7000   -6.3417    0.0000 C   0  0  0  0  0  0  0  0  0  0  0  0
    3.2750   -7.1750    0.0000 C   0  0  0  0  0  0  0  0  0  0  0  0
    7.2542   -5.3375    0.0000 C   0  0  0  0  0  0  0  0  0  0  0  0
    5.4167   -8.4125    0.0000 C   0  0  0  0  0  0  0  0  0  0  0  0
    8.4292   -6.5042    0.0000 C   0  0  0  0  0  0  0  0  0  0  0  0
    4.7000   -8.8250    0.0000 C   0  0  0  0  0  0  0  0  0  0  0  0
    2.5542   -8.4125    0.0000 C   0  0  0  0  0  0  0  0  0  0  0  0
    8.4250   -7.3292    0.0000 O   0  0  0  0  0  0  0  0  0  0  0  0
    8.0750   -5.2500    0.0000 O   0  0  0  0  0  0  0  0  0  0  0  0
    1.8375   -8.8292    0.0000 O   0  0  0  0  0  0  0  0  0  0  0  0
    2.5542   -7.5875    0.0000 C   0  0  0  0  0  0  0  0  0  0  0  0
    6.1292   -5.5167    0.0000 C   0  0  0  0  0  0  0  0  0  0  0  0
    3.9875   -6.7542    0.0000 C   0  0  0  0  0  0  0  0  0  0  0  0
    9.1500   -6.1000    0.0000 C   0  0  0  0  0  0  0  0  0  0  0  0
    6.7667   -4.6667    0.0000 C   0  0  0  0  0  0  0  0  0  0  0  0
    9.1542   -5.2750    0.0000 C   0  0  0  0  0  0  0  0  0  0  0  0
    9.8792   -4.0375    0.0000 C   0  0  0  0  0  0  0  0  0  0  0  0
    9.8750   -4.8667    0.0000 C   0  0  0  0  0  0  0  0  0  0  0  0
   10.6000   -3.6292    0.0000 C   0  0  0  0  0  0  0  0  0  0  0  0
  2  1  1  0
  3  6  1  0
  4  1  1  0
  5  3  1  0
  6 13  1  0
  7  4  1  0
  8  5  2  0
  9  1  1  0
 10  2  1  0
  2 11  1  6
 12  4  1  0
 13  9  1  0
 14  3  1  0
  2 15  1  0
 16  7  1  0
 17 11  1  0
 18 16  1  0
 19 23  1  0
 20 17  2  0
 21 15  2  0
 22 19  2  0
 23 14  1  0
  1 24  1  1
  3 25  1  1
 26 17  1  0
 27 15  1  0
 28 26  1  0
 29 30  1  0
 30 28  1  0
 31 29  1  0
 10 12  1  0
  6  7  1  0
 18  5  1  0
  8 19  1  0
M  END
>  <ID>  (1145) 


>  <MOLENAME>  (1145) 
HYDROXYPROGESTERONE CAPROATE

>  <therap>  (1145) 
progestogen

>  <ref>  (1145) 
Obstet. Gynecol. (2005), 105(5, Pt. 1), 1128-1135; Fertil. Steril. (1957), 8, 50-79; J. Clin. Endocrinol. Metab. (1955), 15, 923-30

>  <cas#>  (1145) 
630-56-8, 68-96-2 [hydroxyprogesterone]

>  <source>  (1145) 
semisynthetic; NSC-17592

>  <status>  (1145) 
USP, INN, BAN, JAN

>  <tradename>  (1145) 
DELALUTIN

>  <SMILES>  (1145) 
CCCCCC(=O)O[C@]1(C(C)=O)CCC2C3CCC4=CC(=O)CC[C@]4(C)C3CC[C@@]21C

>  <standardized_failed>  (1145) 
False

$$$$

     RDKit          2D

 10 11  0  0  0  0  0  0  0  0999 V2000
    6.2000   -6.5167    0.0000 C   0  0  0  0  0  0  0  0  0  0  0  0
    6.2000   -7.3417    0.0000 C   0  0  0  0  0  0  0  0  0  0  0  0
    5.4875   -6.1042    0.0000 C   0  0  0  0  0  0  0  0  0  0  0  0
    5.4875   -7.7542    0.0000 N   0  0  0  0  0  0  0  0  0  0  0  0
    6.9792   -7.6000    0.0000 N   0  0  0  0  0  0  0  0  0  0  0  0
    4.7667   -6.5167    0.0000 N   0  0  0  0  0  0  0  0  0  0  0  0
    6.9792   -6.2667    0.0000 N   0  0  0  0  0  0  0  0  0  0  0  0
    4.7667   -7.3417    0.0000 C   0  0  0  0  0  0  0  0  0  0  0  0
    7.4667   -6.9375    0.0000 C   0  0  0  0  0  0  0  0  0  0  0  0
    5.4875   -5.2792    0.0000 S   0  0  0  0  0  0  0  0  0  0  0  0
  2  1  2  0
  3  1  1  0
  4  2  1  0
  5  2  1  0
  6  3  1  0
  7  1  1  0
  8  6  1  0
  9  7  1  0
 10  3  2  0
  9  5  2  0
  8  4  2  0
M  END
>  <ID>  (1146) 


>  <MOLENAME>  (1146) 
MERCAPTOPURINE

>  <therap>  (1146) 
antineoplastic, purine antimetabolite

>  <ref>  (1146) 
Arch Toxicol 32:1 (1974); Ann Clin Biochem 25:504 (1988)

>  <cas#>  (1146) 
6112-76-1, 50-44-2 [anhydrous]

>  <source>  (1146) 
synthetic

>  <status>  (1146) 
USP, INN, BAN, JAN

>  <tradename>  (1146) 
PURINETHOL

>  <SMILES>  (1146) 
S=c1[nH]cnc2c1[nH]cn2

>  <standardized_failed>  (1146) 
False

$$$$

     RDKit          2D

 19 21  0  0  0  0  0  0  0  0999 V2000
    4.7667   -4.2792    0.0000 C   0  0  0  0  0  0  0  0  0  0  0  0
    4.7542   -2.9417    0.0000 C   0  0  0  0  0  0  0  0  0  0  0  0
    5.2500   -3.6125    0.0000 C   0  0  0  0  0  0  0  0  0  0  0  0
    3.9792   -4.0292    0.0000 C   0  0  0  0  0  0  0  0  0  0  0  0
    3.9750   -3.2042    0.0000 C   0  0  0  0  0  0  0  0  0  0  0  0
    6.0750   -3.6042    0.0000 C   0  0  0  0  0  0  0  0  0  0  0  0
    5.0042   -2.1625    0.0000 O   0  0  0  0  0  0  0  0  0  0  0  0
    5.0250   -5.0667    0.0000 O   0  0  0  0  0  0  0  0  0  0  0  0
    6.4875   -4.3167    0.0000 C   0  0  0  0  0  0  0  0  0  0  0  0
    6.4750   -2.8917    0.0000 C   0  0  0  0  0  0  0  0  0  0  0  0
    7.7167   -3.6000    0.0000 C   0  0  0  0  0  0  0  0  0  0  0  0
    7.3000   -2.8792    0.0000 C   0  0  0  0  0  0  0  0  0  0  0  0
    7.3125   -4.3167    0.0000 C   0  0  0  0  0  0  0  0  0  0  0  0
    3.2542   -2.7917    0.0000 C   0  0  0  0  0  0  0  0  0  0  0  0
    3.2542   -4.4417    0.0000 C   0  0  0  0  0  0  0  0  0  0  0  0
    8.5417   -3.5917    0.0000 O   0  0  0  0  0  0  0  0  0  0  0  0
    8.9625   -4.3042    0.0000 C   0  0  0  0  0  0  0  0  0  0  0  0
    2.5417   -4.0375    0.0000 C   0  0  0  0  0  0  0  0  0  0  0  0
    2.5417   -3.2125    0.0000 C   0  0  0  0  0  0  0  0  0  0  0  0
  2  3  1  0
  3  1  1  0
  4  1  1  0
  5  4  2  0
  6  3  1  0
  7  2  2  0
  8  1  2  0
  9  6  2  0
 10  6  1  0
 11 12  1  0
 12 10  2  0
 13  9  1  0
 14  5  1  0
 15  4  1  0
 16 11  1  0
 17 16  1  0
 18 15  2  0
 19 18  1  0
  2  5  1  0
 14 19  2  0
 13 11  2  0
M  END
>  <ID>  (1147) 


>  <MOLENAME>  (1147) 
ANISINDIONE

>  <therap>  (1147) 
anticoagulant

>  <ref>  (1147) 
Can Med Assoc J 80:785 (1959); Am J Hematol 46:138 (1994)

>  <cas#>  (1147) 
117-37-3

>  <source>  (1147) 
synthetic

>  <status>  (1147) 
NF-XIII, INN, BAN

>  <tradename>  (1147) 
MIRADON

>  <SMILES>  (1147) 
COc1ccc(C2C(=O)c3c(cccc3)C2=O)cc1

>  <standardized_failed>  (1147) 
False

$$$$

     RDKit          2D

 30 32  0  0  0  0  0  0  0  0999 V2000
    2.5500   -1.6667    0.0000 N   0  0  0  0  0  0  0  0  0  0  0  0
    3.2167   -2.1500    0.0000 C   0  0  0  0  0  0  0  0  0  0  0  0
    2.5500   -0.8417    0.0000 C   0  0  0  0  0  0  0  0  0  0  0  0
    1.8792   -2.1542    0.0000 C   0  0  0  0  0  0  0  0  0  0  0  0
    2.9625   -2.9292    0.0000 C   0  0  0  0  0  0  0  0  0  0  0  0
    4.0000   -1.8917    0.0000 C   0  0  0  0  0  0  0  0  0  0  0  0
    1.1250   -0.8417    0.0000 N   0  0  0  0  0  0  0  0  0  0  0  0
    2.1292   -2.9292    0.0000 C   0  0  0  0  0  0  0  0  0  0  0  0
    1.8375   -0.4292    0.0000 C   0  0  0  0  0  0  0  0  0  0  0  0
    0.4125    0.3958    0.0000 C   0  0  0  0  0  0  0  0  0  0  0  0
    0.4125   -0.4292    0.0000 C   0  0  0  0  0  0  0  0  0  0  0  0
    3.2625   -0.4292    0.0000 O   0  0  0  0  0  0  0  0  0  0  0  0
    4.1667   -1.0875    0.0000 O   0  0  0  0  0  0  0  0  0  0  0  0
   -0.3083    0.8083    0.0000 O   0  0  0  0  0  0  0  0  0  0  0  0
   -0.3000   -0.8417    0.0000 C   0  0  0  0  0  0  0  0  0  0  0  0
    4.6125   -2.4417    0.0000 O   0  0  0  0  0  0  0  0  0  0  0  0
    1.1250    0.8083    0.0000 O   0  0  0  0  0  0  0  0  0  0  0  0
   -1.0125   -0.4292    0.0000 C   0  0  0  0  0  0  0  0  0  0  0  0
    1.0542   -2.1542    0.0000 C   0  0  0  0  0  0  0  0  0  0  0  0
   -1.7250   -0.8417    0.0000 C   0  0  0  0  0  0  0  0  0  0  0  0
    1.4667   -3.4167    0.0000 C   0  0  0  0  0  0  0  0  0  0  0  0
    0.8042   -2.9375    0.0000 C   0  0  0  0  0  0  0  0  0  0  0  0
    1.8375    0.3958    0.0000 C   0  0  0  0  0  0  0  0  0  0  0  0
    1.1250    1.6333    0.0000 C   0  0  0  0  0  0  0  0  0  0  0  0
   -2.4458   -0.4250    0.0000 C   0  0  0  0  0  0  0  0  0  0  0  0
   -1.7250   -1.6542    0.0000 C   0  0  0  0  0  0  0  0  0  0  0  0
    1.8375    2.0458    0.0000 C   0  0  0  0  0  0  0  0  0  0  0  0
   -2.4333   -2.0667    0.0000 C   0  0  0  0  0  0  0  0  0  0  0  0
   -3.1500   -0.8375    0.0000 C   0  0  0  0  0  0  0  0  0  0  0  0
   -3.1500   -1.6625    0.0000 C   0  0  0  0  0  0  0  0  0  0  0  0
  2  1  1  0
  3  1  1  0
  4  1  1  0
  5  2  1  0
  2  6  1  6
  7  9  1  0
  8  4  1  0
  9  3  1  0
 11 10  1  0
 11  7  1  0
 12  3  2  0
 13  6  2  0
 14 10  2  0
 11 15  1  1
 16  6  1  0
 17 10  1  0
 18 15  1  0
  4 19  1  6
 20 18  1  0
  8 21  1  6
 22 19  1  0
  9 23  1  1
 24 17  1  0
 25 20  2  0
 26 20  1  0
 27 24  1  0
 28 26  2  0
 29 25  1  0
 30 28  1  0
  8  5  1  0
 22 21  1  0
 29 30  2  0
M  END
>  <ID>  (1148) 


>  <MOLENAME>  (1148) 
RAMIPRIL

>  <therap>  (1148) 
antihypertensive, ACE inhibitor

>  <ref>  (1148) 
Arzneim Forsch 38:14 (1988); Lancet 352:1252 (1998); N Engl J Med 342:145 (2000); Br Med J 324:1 (2002)

>  <cas#>  (1148) 
87333-19-5

>  <source>  (1148) 
synthetic; HOE-498

>  <status>  (1148) 
USP, INN, BAN

>  <tradename>  (1148) 
ALTACE

>  <SMILES>  (1148) 
CCOC(=O)[C@H](CCc1ccccc1)N[C@@H](C)C(=O)N1[C@H](C(=O)O)C[C@@H]2CCC[C@@H]21

>  <standardized_failed>  (1148) 
False

$$$$

     RDKit          2D

 33 33  0  0  0  0  0  0  0  0999 V2000
    6.8333   -6.5042    0.0000 C   0  0  0  0  0  0  0  0  0  0  0  0
    8.2625   -6.5042    0.0000 C   0  0  0  0  0  0  0  0  0  0  0  0
    7.5458   -5.2625    0.0000 C   0  0  0  0  0  0  0  0  0  0  0  0
    6.8333   -5.6750    0.0000 C   0  0  0  0  0  0  0  0  0  0  0  0
    7.5458   -6.9167    0.0000 C   0  0  0  0  0  0  0  0  0  0  0  0
    8.2625   -5.6750    0.0000 C   0  0  0  0  0  0  0  0  0  0  0  0
    6.1167   -6.9167    0.0000 N   0  0  0  0  0  0  0  0  0  0  0  0
    8.9792   -6.9167    0.0000 C   0  0  0  0  0  0  0  0  0  0  0  0
    7.5417   -4.4375    0.0000 C   0  0  0  0  0  0  0  0  0  0  0  0
    5.4042   -6.5042    0.0000 C   0  0  0  0  0  0  0  0  0  0  0  0
    6.8292   -4.0250    0.0000 N   0  0  0  0  0  0  0  0  0  0  0  0
    8.9792   -7.7417    0.0000 N   0  0  0  0  0  0  0  0  0  0  0  0
    9.6917   -6.5000    0.0000 O   0  0  0  0  0  0  0  0  0  0  0  0
    8.2583   -4.0250    0.0000 O   0  0  0  0  0  0  0  0  0  0  0  0
    5.4042   -5.6792    0.0000 O   0  0  0  0  0  0  0  0  0  0  0  0
    8.9750   -5.2583    0.0000 I   0  0  0  0  0  0  0  0  0  0  0  0
    7.5458   -7.7417    0.0000 I   0  0  0  0  0  0  0  0  0  0  0  0
    6.1208   -5.2667    0.0000 I   0  0  0  0  0  0  0  0  0  0  0  0
    6.1167   -4.4375    0.0000 C   0  0  0  0  0  0  0  0  0  0  0  0
    9.6958   -8.1500    0.0000 C   0  0  0  0  0  0  0  0  0  0  0  0
    5.4042   -4.0250    0.0000 C   0  0  0  0  0  0  0  0  0  0  0  0
   10.4083   -7.7375    0.0000 C   0  0  0  0  0  0  0  0  0  0  0  0
    6.1167   -7.7417    0.0000 C   0  0  0  0  0  0  0  0  0  0  0  0
    4.6875   -6.9167    0.0000 C   0  0  0  0  0  0  0  0  0  0  0  0
    5.4042   -3.2000    0.0000 O   0  0  0  0  0  0  0  0  0  0  0  0
   10.4083   -6.9125    0.0000 O   0  0  0  0  0  0  0  0  0  0  0  0
    3.9750   -6.5042    0.0000 O   0  0  0  0  0  0  0  0  0  0  0  0
   11.8375   -7.7375    0.0000 O   0  0  0  0  0  0  0  0  0  0  0  0
    3.9792   -4.0250    0.0000 O   0  0  0  0  0  0  0  0  0  0  0  0
    5.4000   -8.9792    0.0000 O   0  0  0  0  0  0  0  0  0  0  0  0
    4.6917   -4.4375    0.0000 C   0  0  0  0  0  0  0  0  0  0  0  0
   11.1250   -8.1500    0.0000 C   0  0  0  0  0  0  0  0  0  0  0  0
    5.4042   -8.1542    0.0000 C   0  0  0  0  0  0  0  0  0  0  0  0
  2  5  2  0
  3  4  1  0
  4  1  2  0
  5  1  1  0
  6  2  1  0
  7  1  1  0
  8  2  1  0
  9  3  1  0
 10  7  1  0
 11  9  1  0
 12  8  1  0
 13  8  2  0
 14  9  2  0
 15 10  2  0
 16  6  1  0
 17  5  1  0
 18  4  1  0
 19 11  1  0
 20 12  1  0
 21 19  1  0
 22 20  1  0
 23  7  1  0
 24 10  1  0
 25 21  1  0
 26 22  1  0
 27 24  1  0
 28 32  1  0
 29 31  1  0
 30 33  1  0
 31 21  1  0
 32 22  1  0
 33 23  1  0
  3  6  2  0
M  END
>  <ID>  (1149) 


>  <MOLENAME>  (1149) 
IOVERSOL

>  <therap>  (1149) 
radiopaque agent

>  <ref>  (1149) 
Invest. Radiol. (1990), 25(Suppl. 1), S100-S101; Invest. Radiol. (1989), 24 Suppl 1S33-4; Invest. Radiol. (1989), 24(2), 133-7

>  <cas#>  (1149) 
8771-40-2

>  <source>  (1149) 
synthetic; MP-328

>  <status>  (1149) 
USP, INN, BAN

>  <tradename>  (1149) 
OPTIRAY

>  <SMILES>  (1149) 
O=C(NCC(O)CO)c1c(I)c(N(CCO)C(=O)CO)c(I)c(C(=O)NCC(O)CO)c1I

>  <standardized_failed>  (1149) 
False

$$$$

     RDKit          2D

 69 77  0  0  0  0  0  0  0  0999 V2000
   13.3542   -1.2917    0.0000 C   0  0  0  0  0  0  0  0  0  0  0  0
   13.3542   -0.4625    0.0000 C   0  0  0  0  0  0  0  0  0  0  0  0
   -0.2958   -1.8500    0.0000 C   0  0  0  0  0  0  0  0  0  0  0  0
   11.9250   -1.2917    0.0000 C   0  0  0  0  0  0  0  0  0  0  0  0
   11.2125   -1.7042    0.0000 C   0  0  0  0  0  0  0  0  0  0  0  0
   -0.2500   -2.6750    0.0000 C   0  0  0  0  0  0  0  0  0  0  0  0
   12.6417   -1.7042    0.0000 C   0  0  0  0  0  0  0  0  0  0  0  0
   -1.0333   -3.0042    0.0000 C   0  0  0  0  0  0  0  0  0  0  0  0
   -1.0208   -1.4625    0.0000 O   0  0  0  0  0  0  0  0  0  0  0  0
    1.1500   -1.8000    0.0000 C   0  0  0  0  0  0  0  0  0  0  0  0
   14.1417   -0.2042    0.0000 C   0  0  0  0  0  0  0  0  0  0  0  0
   12.6375   -0.0500    0.0000 C   0  0  0  0  0  0  0  0  0  0  0  0
   14.1167    0.5833    0.0000 C   0  0  0  0  0  0  0  0  0  0  0  0
    0.4125   -1.4042    0.0000 O   0  0  0  0  0  0  0  0  0  0  0  0
    1.1625   -2.6250    0.0000 C   0  0  0  0  0  0  0  0  0  0  0  0
   -1.7250   -2.6542    0.0000 C   0  0  0  0  0  0  0  0  0  0  0  0
    4.0375   -2.5792    0.0000 C   0  0  0  0  0  0  0  0  0  0  0  0
    6.9000   -1.7167    0.0000 C   0  0  0  0  0  0  0  0  0  0  0  0
   -1.7208   -1.9000    0.0000 C   0  0  0  0  0  0  0  0  0  0  0  0
    2.5917   -2.6042    0.0000 C   0  0  0  0  0  0  0  0  0  0  0  0
    5.4542   -1.7375    0.0000 C   0  0  0  0  0  0  0  0  0  0  0  0
   11.9250   -0.4625    0.0000 C   0  0  0  0  0  0  0  0  0  0  0  0
    8.3417   -2.5375    0.0000 C   0  0  0  0  0  0  0  0  0  0  0  0
    4.7375   -1.3292    0.0000 O   0  0  0  0  0  0  0  0  0  0  0  0
    2.5792   -1.7750    0.0000 O   0  0  0  0  0  0  0  0  0  0  0  0
    1.8792   -3.0292    0.0000 C   0  0  0  0  0  0  0  0  0  0  0  0
    8.3375   -1.7125    0.0000 O   0  0  0  0  0  0  0  0  0  0  0  0
    5.4667   -2.5667    0.0000 C   0  0  0  0  0  0  0  0  0  0  0  0
    7.6292   -2.9542    0.0000 C   0  0  0  0  0  0  0  0  0  0  0  0
   13.4500    1.0708    0.0000 C   0  0  0  0  0  0  0  0  0  0  0  0
   11.2125   -2.5292    0.0000 C   0  0  0  0  0  0  0  0  0  0  0  0
    6.9042   -2.5417    0.0000 C   0  0  0  0  0  0  0  0  0  0  0  0
    4.7625   -2.9875    0.0000 C   0  0  0  0  0  0  0  0  0  0  0  0
    1.8667   -1.3667    0.0000 C   0  0  0  0  0  0  0  0  0  0  0  0
   14.1417   -1.5417    0.0000 C   0  0  0  0  0  0  0  0  0  0  0  0
    4.0250   -1.7542    0.0000 C   0  0  0  0  0  0  0  0  0  0  0  0
    7.6250   -1.3000    0.0000 C   0  0  0  0  0  0  0  0  0  0  0  0
   13.7125    1.8583    0.0000 C   0  0  0  0  0  0  0  0  0  0  0  0
    6.1667   -1.3042    0.0000 O   0  0  0  0  0  0  0  0  0  0  0  0
    3.3167   -3.0042    0.0000 O   0  0  0  0  0  0  0  0  0  0  0  0
    0.9542   -3.4625    0.0000 O   0  0  0  0  0  0  0  0  0  0  0  0
   14.5292    1.8583    0.0000 O   0  0  0  0  0  0  0  0  0  0  0  0
   14.6250   -0.8750    0.0000 C   0  0  0  0  0  0  0  0  0  0  0  0
   10.5000   -1.2917    0.0000 C   0  0  0  0  0  0  0  0  0  0  0  0
   12.6417   -2.5292    0.0000 C   0  0  0  0  0  0  0  0  0  0  0  0
    1.5542   -3.9292    0.0000 C   0  0  0  0  0  0  0  0  0  0  0  0
   14.7875    1.0708    0.0000 C   0  0  0  0  0  0  0  0  0  0  0  0
    9.0625   -2.9500    0.0000 O   0  0  0  0  0  0  0  0  0  0  0  0
   10.5000   -2.9417    0.0000 C   0  0  0  0  0  0  0  0  0  0  0  0
   11.9250   -2.9417    0.0000 C   0  0  0  0  0  0  0  0  0  0  0  0
   13.3500   -2.1792    0.0000 O   0  0  0  0  0  0  0  0  0  0  0  0
   13.2375    2.5458    0.0000 O   0  0  0  0  0  0  0  0  0  0  0  0
    9.7792   -2.5292    0.0000 C   0  0  0  0  0  0  0  0  0  0  0  0
    1.2417   -4.7125    0.0000 O   0  0  0  0  0  0  0  0  0  0  0  0
    0.5542   -2.8875    0.0000 O   0  0  0  0  0  0  0  0  0  0  0  0
   -1.0083   -3.7417    0.0000 O   0  0  0  0  0  0  0  0  0  0  0  0
   -2.4500   -2.8250    0.0000 O   0  0  0  0  0  0  0  0  0  0  0  0
   13.3542    0.3625    0.0000 C   0  0  0  0  0  0  0  0  0  0  0  0
   12.6292    0.7750    0.0000 O   0  0  0  0  0  0  0  0  0  0  0  0
    9.7792   -1.7042    0.0000 C   0  0  0  0  0  0  0  0  0  0  0  0
    6.1917   -2.9667    0.0000 O   0  0  0  0  0  0  0  0  0  0  0  0
    4.7792   -3.8125    0.0000 O   0  0  0  0  0  0  0  0  0  0  0  0
   11.1917   -0.9667    0.0000 C   0  0  0  0  0  0  0  0  0  0  0  0
   -2.5583   -1.3917    0.0000 C   0  0  0  0  0  0  0  0  0  0  0  0
   -3.1250   -1.9875    0.0000 O   0  0  0  0  0  0  0  0  0  0  0  0
    3.2917   -1.3417    0.0000 C   0  0  0  0  0  0  0  0  0  0  0  0
    7.6292   -0.4750    0.0000 C   0  0  0  0  0  0  0  0  0  0  0  0
    1.8667   -0.5417    0.0000 C   0  0  0  0  0  0  0  0  0  0  0  0
    2.4292   -3.9000    0.0000 C   0  0  0  0  0  0  0  0  0  0  0  0
  2  1  1  0
  3 14  1  1
  4  7  1  0
  5  4  1  0
  6  3  1  0
  7  1  1  0
  8  6  1  0
  9  3  1  0
 10 15  1  0
 11  2  1  0
 12  2  1  0
 11 13  1  0
 10 14  1  6
 15 26  1  0
 16 19  1  0
 17 33  1  0
 18 32  1  0
 19  9  1  0
 20 40  1  1
 21 39  1  1
 22  4  1  0
 23 48  1  1
 24 21  1  0
 25 20  1  0
 26 20  1  0
 27 23  1  0
 28 21  1  0
 29 23  1  0
 30 13  2  0
 31 50  1  0
 32 29  1  0
 33 28  1  0
 34 25  1  0
 35  1  1  0
 36 24  1  0
 37 27  1  0
 38 30  1  0
 18 39  1  6
 17 40  1  6
 15 41  1  6
 42 47  1  0
 43 35  1  0
 44  5  1  0
 45  7  1  0
 46 41  1  0
 47 13  1  0
 53 48  1  1
 49 31  1  0
 50 45  1  0
  1 51  1  1
 52 38  2  0
 53 49  1  0
 54 46  2  0
  6 55  1  6
  8 56  1  1
 16 57  1  6
  2 58  1  1
 12 59  1  1
 60 44  1  0
 32 61  1  6
 33 62  1  6
  5 63  1  1
 19 64  1  1
 65 64  1  0
 36 66  1  1
 37 67  1  1
 34 68  1  1
 69 46  1  0
 11 43  1  1
 22 12  1  0
 31  5  1  0
 53 60  1  0
 38 42  1  0
 18 37  1  0
 17 36  1  0
 10 34  1  0
  8 16  1  0
M  END
>  <ID>  (1150) 


>  <MOLENAME>  (1150) 
LANATOSIDE C

>  <therap>  (1150) 
cardiotonic

>  <ref>  (1150) 
Helv Chim Acta 35: 1318 (1952)

>  <cas#>  (1150) 
17575-22-3

>  <source>  (1150) 
cardiotonc Digitalis lanata

>  <status>  (1150) 
USAN, NF-XIII, INN, BAN, JAN

>  <tradename>  (1150) 
nan

>  <SMILES>  (1150) 
CC(=O)O[C@H]1C[C@H](O[C@H]2[C@@H](O)C[C@H](O[C@H]3[C@@H](O)C[C@H](O[C@H]4CC[C@@]5(C)C(CCC6C5C[C@@H](O)[C@]5(C)[C@@H](C7=CC(=O)OC7)CC[C@]65O)C4)O[C@@H]3C)O[C@@H]2C)O[C@H](C)[C@H]1O[C@@H]1O[C@H](CO)[C@@H](O)[C@H](O)[C@H]1O

>  <standardized_failed>  (1150) 
False

$$$$

     RDKit          2D

 16 17  0  0  0  0  0  0  0  0999 V2000
    4.5542   -3.9125    0.0000 N   0  0  0  0  0  0  0  0  0  0  0  0
    4.5542   -3.0875    0.0000 C   0  0  0  0  0  0  0  0  0  0  0  0
    5.2667   -2.6667    0.0000 N   0  0  0  0  0  0  0  0  0  0  0  0
    5.2667   -4.3167    0.0000 C   0  0  0  0  0  0  0  0  0  0  0  0
    5.9792   -3.9125    0.0000 C   0  0  0  0  0  0  0  0  0  0  0  0
    5.9792   -3.0875    0.0000 C   0  0  0  0  0  0  0  0  0  0  0  0
    3.8417   -4.3250    0.0000 C   0  0  0  0  0  0  0  0  0  0  0  0
    3.0917   -3.9917    0.0000 O   0  0  0  0  0  0  0  0  0  0  0  0
    3.7583   -5.1458    0.0000 C   0  0  0  0  0  0  0  0  0  0  0  0
    3.8417   -2.6750    0.0000 O   0  0  0  0  0  0  0  0  0  0  0  0
    2.9542   -5.3208    0.0000 C   0  0  0  0  0  0  0  0  0  0  0  0
    6.6958   -2.6750    0.0000 O   0  0  0  0  0  0  0  0  0  0  0  0
    2.5375   -4.6042    0.0000 C   0  0  0  0  0  0  0  0  0  0  0  0
    6.6958   -4.3250    0.0000 C   0  0  0  0  0  0  0  0  0  0  0  0
    1.3833   -3.7667    0.0000 O   0  0  0  0  0  0  0  0  0  0  0  0
    1.7208   -4.5208    0.0000 C   0  0  0  0  0  0  0  0  0  0  0  0
  2  1  1  0
  3  2  1  0
  4  1  1  0
  5  4  2  0
  6  5  1  0
  7  1  1  1
  8  7  1  0
  9  7  1  0
 10  2  2  0
 11  9  2  0
 12  6  2  0
 13  8  1  0
 14  5  1  0
 15 16  1  0
 13 16  1  1
 11 13  1  0
  3  6  1  0
M  END
>  <ID>  (1151) 


>  <MOLENAME>  (1151) 
STAVUDINE

>  <therap>  (1151) 
antiviral

>  <ref>  (1151) 
J Org Chem 31:205 (1966); 57:387 (1992); J Infect Dis 167:21 (1993)

>  <cas#>  (1151) 
3056-17-5

>  <source>  (1151) 
synthetic; BMY-27857

>  <status>  (1151) 
USP, INN, BAN

>  <tradename>  (1151) 
ZERIT

>  <SMILES>  (1151) 
Cc1cn([C@H]2C=C[C@@H](CO)O2)c(=O)[nH]c1=O

>  <standardized_failed>  (1151) 
False

$$$$

     RDKit          2D

 31 36  0  0  0  0  0  0  0  0999 V2000
    4.1833   -2.4708    0.0000 C   0  0  0  0  0  0  0  0  0  0  0  0
    4.1792   -1.6500    0.0000 C   0  0  0  0  0  0  0  0  0  0  0  0
    4.8917   -1.2375    0.0000 C   0  0  0  0  0  0  0  0  0  0  0  0
    9.1708    1.2500    0.0000 C   0  0  0  0  0  0  0  0  0  0  0  0
    4.8917   -0.4167    0.0000 C   0  0  0  0  0  0  0  0  0  0  0  0
    8.4583    0.8333    0.0000 C   0  0  0  0  0  0  0  0  0  0  0  0
    5.6042   -0.0042    0.0000 C   0  0  0  0  0  0  0  0  0  0  0  0
    2.8000   -3.1833    0.0000 C   0  0  0  0  0  0  0  0  0  0  0  0
    4.2375   -2.8083    0.0000 C   0  0  0  0  0  0  0  0  0  0  0  0
    5.4250   -2.4667    0.0000 C   0  0  0  0  0  0  0  0  0  0  0  0
    7.7417    1.2417    0.0000 C   0  0  0  0  0  0  0  0  0  0  0  0
    6.3167   -0.4167    0.0000 C   0  0  0  0  0  0  0  0  0  0  0  0
    7.0333    0.8250    0.0000 C   0  0  0  0  0  0  0  0  0  0  0  0
    7.0333   -0.0000    0.0000 C   0  0  0  0  0  0  0  0  0  0  0  0
    5.1125   -3.3708    0.0000 C   0  0  0  0  0  0  0  0  0  0  0  0
    3.7792   -3.4292    0.0000 C   0  0  0  0  0  0  0  0  0  0  0  0
    4.1125   -4.6542    0.0000 C   0  0  0  0  0  0  0  0  0  0  0  0
    3.4625   -1.2375    0.0000 C   0  0  0  0  0  0  0  0  0  0  0  0
    9.1667    2.0750    0.0000 O   0  0  0  0  0  0  0  0  0  0  0  0
    8.4625    0.0042    0.0000 C   0  0  0  0  0  0  0  0  0  0  0  0
    4.1750   -0.0000    0.0000 C   0  0  0  0  0  0  0  0  0  0  0  0
    5.6042    0.8250    0.0000 C   0  0  0  0  0  0  0  0  0  0  0  0
    6.3167    1.2375    0.0000 C   0  0  0  0  0  0  0  0  0  0  0  0
    7.7500   -0.4125    0.0000 C   0  0  0  0  0  0  0  0  0  0  0  0
    3.4625   -0.4125    0.0000 C   0  0  0  0  0  0  0  0  0  0  0  0
    5.0500   -4.1542    0.0000 C   0  0  0  0  0  0  0  0  0  0  0  0
    4.2667   -3.8417    0.0000 C   0  0  0  0  0  0  0  0  0  0  0  0
    4.7375   -3.0875    0.0000 C   0  0  0  0  0  0  0  0  0  0  0  0
    9.8875    0.8417    0.0000 O   0  0  0  0  0  0  0  0  0  0  0  0
    2.7458   -1.6500    0.0000 O   0  0  0  0  0  0  0  0  0  0  0  0
    2.0333   -1.2417    0.0000 C   0  0  0  0  0  0  0  0  0  0  0  0
  2  1  1  0
  3  2  2  0
  4  6  1  0
  5  3  1  0
  6 20  2  0
  7  5  1  0
  8  1  1  0
  9  1  1  0
 10  1  1  0
 11 13  2  0
 12  7  2  0
 13 14  1  0
 14 12  1  0
 15 10  1  0
 16  9  1  0
 17  8  1  0
 18  2  1  0
 19  4  2  0
 20 24  1  0
 21  5  2  0
 22  7  1  0
 23 22  2  0
 24 14  2  0
 25 18  2  0
 26 15  1  0
 27 16  1  0
 28 16  1  0
 29  4  1  0
 30 18  1  0
 31 30  1  0
 25 21  1  0
 15 28  1  0
 17 27  1  0
 26 17  1  0
 23 13  1  0
 11  6  1  0
M  END
>  <ID>  (1152) 


>  <MOLENAME>  (1152) 
ADAPALENE

>  <therap>  (1152) 
anti-acne

>  <ref>  (1152) 
Drugs 53:511 (1997); 64:1465 (2004)

>  <cas#>  (1152) 
106685-40-9

>  <source>  (1152) 
synthetic; CD-271

>  <status>  (1152) 
USAN, INN, BAN

>  <tradename>  (1152) 
DIFFERIN

>  <SMILES>  (1152) 
COc1ccc(-c2cc3ccc(C(=O)O)cc3cc2)cc1C12CC3CC(CC(C3)C1)C2

>  <standardized_failed>  (1152) 
False

$$$$

     RDKit          2D

 45 50  0  0  0  0  0  0  0  0999 V2000
    5.2292   -2.3875    0.0000 N   0  0  0  0  0  0  0  0  0  0  0  0
    4.7417   -1.7167    0.0000 C   0  0  0  0  0  0  0  0  0  0  0  0
    5.2292   -1.0500    0.0000 N   0  0  0  0  0  0  0  0  0  0  0  0
    6.0167   -2.1292    0.0000 C   0  0  0  0  0  0  0  0  0  0  0  0
    6.7292   -2.5417    0.0000 C   0  0  0  0  0  0  0  0  0  0  0  0
    1.6625   -3.6292    0.0000 C   0  0  0  0  0  0  0  0  0  0  0  0
    2.0667   -2.3625    0.0000 N   0  0  0  0  0  0  0  0  0  0  0  0
    6.7292   -3.3667    0.0000 C   0  0  0  0  0  0  0  0  0  0  0  0
    2.3292   -3.1417    0.0000 N   0  0  0  0  0  0  0  0  0  0  0  0
    1.2417   -2.3667    0.0000 N   0  0  0  0  0  0  0  0  0  0  0  0
    6.0167   -1.3042    0.0000 C   0  0  0  0  0  0  0  0  0  0  0  0
    0.9917   -3.1500    0.0000 N   0  0  0  0  0  0  0  0  0  0  0  0
    9.6667   -3.3667    0.0000 C   0  0  0  0  0  0  0  0  0  0  0  0
    1.6667   -4.4542    0.0000 C   0  0  0  0  0  0  0  0  0  0  0  0
    8.9500   -3.7792    0.0000 O   0  0  0  0  0  0  0  0  0  0  0  0
    7.4417   -3.7792    0.0000 O   0  0  0  0  0  0  0  0  0  0  0  0
    2.3792   -4.8667    0.0000 C   0  0  0  0  0  0  0  0  0  0  0  0
    5.2292   -3.2125    0.0000 C   0  0  0  0  0  0  0  0  0  0  0  0
    8.2375   -3.3667    0.0000 C   0  0  0  0  0  0  0  0  0  0  0  0
    3.0917   -4.4542    0.0000 C   0  0  0  0  0  0  0  0  0  0  0  0
    6.0167   -3.7792    0.0000 O   0  0  0  0  0  0  0  0  0  0  0  0
   10.3792   -3.7792    0.0000 O   0  0  0  0  0  0  0  0  0  0  0  0
    9.6667   -2.5417    0.0000 O   0  0  0  0  0  0  0  0  0  0  0  0
    3.9167   -1.7167    0.0000 O   0  0  0  0  0  0  0  0  0  0  0  0
    3.0917   -3.6292    0.0000 C   0  0  0  0  0  0  0  0  0  0  0  0
    3.8125   -4.8667    0.0000 C   0  0  0  0  0  0  0  0  0  0  0  0
    4.5167   -3.6250    0.0000 C   0  0  0  0  0  0  0  0  0  0  0  0
    7.4417   -2.1292    0.0000 C   0  0  0  0  0  0  0  0  0  0  0  0
    4.5250   -4.4542    0.0000 C   0  0  0  0  0  0  0  0  0  0  0  0
    3.8000   -3.2167    0.0000 C   0  0  0  0  0  0  0  0  0  0  0  0
    6.7292   -0.8917    0.0000 C   0  0  0  0  0  0  0  0  0  0  0  0
   11.0917   -3.3667    0.0000 C   0  0  0  0  0  0  0  0  0  0  0  0
    0.9542   -4.8750    0.0000 C   0  0  0  0  0  0  0  0  0  0  0  0
    2.3792   -5.7000    0.0000 C   0  0  0  0  0  0  0  0  0  0  0  0
    7.4417   -1.3000    0.0000 C   0  0  0  0  0  0  0  0  0  0  0  0
    8.2375   -2.5417    0.0000 C   0  0  0  0  0  0  0  0  0  0  0  0
    3.5042   -1.0000    0.0000 C   0  0  0  0  0  0  0  0  0  0  0  0
   11.0917   -2.5417    0.0000 C   0  0  0  0  0  0  0  0  0  0  0  0
   11.8042   -3.7875    0.0000 C   0  0  0  0  0  0  0  0  0  0  0  0
    1.6667   -6.1125    0.0000 C   0  0  0  0  0  0  0  0  0  0  0  0
    0.9542   -5.7000    0.0000 C   0  0  0  0  0  0  0  0  0  0  0  0
    2.6792   -1.0000    0.0000 C   0  0  0  0  0  0  0  0  0  0  0  0
   11.8000   -2.1292    0.0000 C   0  0  0  0  0  0  0  0  0  0  0  0
   12.5167   -3.3667    0.0000 C   0  0  0  0  0  0  0  0  0  0  0  0
   12.5167   -2.5417    0.0000 C   0  0  0  0  0  0  0  0  0  0  0  0
  2  1  1  0
  3  2  2  0
  4  1  1  0
  5  4  2  0
  6 14  1  0
  7  9  1  0
  8  5  1  0
  9  6  2  0
 10 12  1  0
 11  4  1  0
 12  6  1  0
 13 15  1  0
 14 17  1  0
 15 19  1  0
 16  8  1  0
 17 20  1  0
 18  1  1  0
 19 16  1  0
 20 25  2  0
 21  8  2  0
 22 13  1  0
 23 13  2  0
 24  2  1  0
 25 30  1  0
 26 29  2  0
 27 18  1  0
 28  5  1  0
 29 27  1  0
 30 27  2  0
 31 11  2  0
 32 22  1  0
 33 14  2  0
 34 17  2  0
 35 31  1  0
 36 19  1  0
 37 24  1  0
 38 32  1  0
 39 32  1  0
 40 34  1  0
 41 40  2  0
 42 37  1  0
 43 38  1  0
 44 39  1  0
 45 44  1  0
  3 11  1  0
 26 20  1  0
 35 28  2  0
 41 33  1  0
 10  7  2  0
 45 43  1  0
M  END
>  <ID>  (1153) 


>  <MOLENAME>  (1153) 
CANDESARTAN CILEXTIL

>  <therap>  (1153) 
angiotensin 1 receptor antagonist

>  <ref>  (1153) 
Clin Ther 15:684 (1993); 16:74 (1994) ; Lancet 362:759 (2003)

>  <cas#>  (1153) 
139481-59-7

>  <source>  (1153) 
synthetic

>  <status>  (1153) 
USAN, INN

>  <tradename>  (1153) 
ATACAND

>  <SMILES>  (1153) 
CCOc1nc2cccc(C(=O)OC(C)OC(=O)OC3CCCCC3)c2n1Cc1ccc(-c2ccccc2-c2nnn[nH]2)cc1

>  <standardized_failed>  (1153) 
False

$$$$

     RDKit          2D

 18 19  0  0  0  0  0  0  0  0999 V2000
    3.0875   -1.6792    0.0000 N   0  0  0  0  0  0  0  0  0  0  0  0
    2.6667   -2.3917    0.0000 C   0  0  0  0  0  0  0  0  0  0  0  0
    4.1667   -0.8917    0.0000 C   0  0  0  0  0  0  0  0  0  0  0  0
    3.9125   -1.6792    0.0000 C   0  0  0  0  0  0  0  0  0  0  0  0
    3.5000   -0.4125    0.0000 N   0  0  0  0  0  0  0  0  0  0  0  0
    2.9917   -3.1542    0.0000 C   0  0  0  0  0  0  0  0  0  0  0  0
    2.8292   -0.8917    0.0000 C   0  0  0  0  0  0  0  0  0  0  0  0
    1.8417   -2.4750    0.0000 O   0  0  0  0  0  0  0  0  0  0  0  0
    2.3750   -3.7042    0.0000 C   0  0  0  0  0  0  0  0  0  0  0  0
    1.6625   -3.2792    0.0000 C   0  0  0  0  0  0  0  0  0  0  0  0
    4.9542   -0.6417    0.0000 C   0  0  0  0  0  0  0  0  0  0  0  0
    4.3917   -2.3500    0.0000 O   0  0  0  0  0  0  0  0  0  0  0  0
    5.1250    0.1625    0.0000 O   0  0  0  0  0  0  0  0  0  0  0  0
    3.8000   -3.3375    0.0000 O   0  0  0  0  0  0  0  0  0  0  0  0
    5.5625   -1.1917    0.0000 N   0  0  0  0  0  0  0  0  0  0  0  0
    2.4417   -4.5250    0.0000 O   0  0  0  0  0  0  0  0  0  0  0  0
    0.9042   -3.6125    0.0000 C   0  0  0  0  0  0  0  0  0  0  0  0
    0.2417   -3.1167    0.0000 O   0  0  0  0  0  0  0  0  0  0  0  0
  2  1  1  1
  3  4  2  0
  4  1  1  0
  5  7  2  0
  6  2  1  0
  7  1  1  0
  8  2  1  0
  9  6  1  0
 10  8  1  0
 11  3  1  0
 12  4  1  0
 13 11  2  0
  6 14  1  6
 15 11  1  0
  9 16  1  6
 10 17  1  1
 18 17  1  0
  3  5  1  0
 10  9  1  0
M  END
>  <ID>  (1154) 


>  <MOLENAME>  (1154) 
MIZORIBINE

>  <therap>  (1154) 
immunosuppressant

>  <ref>  (1154) 
Pediatr. Int. (2002), 44(2), 205-209; Pediatr. Int. (2002), 44(2), 196-198; Curr. Med. Chem. (1999), 6(7), 575-597

>  <cas#>  (1154) 
50924-49-7

>  <source>  (1154) 
synthetic

>  <status>  (1154) 
INN, JAN

>  <tradename>  (1154) 
nan

>  <SMILES>  (1154) 
NC(=O)c1c(O)n([C@@H]2O[C@H](CO)[C@@H](O)[C@H]2O)cn1

>  <standardized_failed>  (1154) 
False

$$$$

     RDKit          2D

 15 15  0  0  0  0  0  0  0  0999 V2000
    5.9875   -3.6833    0.0000 C   0  0  0  0  0  0  0  0  0  0  0  0
    6.7000   -3.2667    0.0000 C   0  0  0  0  0  0  0  0  0  0  0  0
    5.2708   -3.2708    0.0000 C   0  0  0  0  0  0  0  0  0  0  0  0
    6.6958   -2.4417    0.0000 O   0  0  0  0  0  0  0  0  0  0  0  0
    7.4167   -3.6750    0.0000 N   0  0  0  0  0  0  0  0  0  0  0  0
    5.9875   -4.5125    0.0000 C   0  0  0  0  0  0  0  0  0  0  0  0
    5.2667   -2.4458    0.0000 O   0  0  0  0  0  0  0  0  0  0  0  0
    3.1292   -2.0375    0.0000 O   0  0  0  0  0  0  0  0  0  0  0  0
    4.5583   -3.6875    0.0000 C   0  0  0  0  0  0  0  0  0  0  0  0
    4.5542   -2.0375    0.0000 C   0  0  0  0  0  0  0  0  0  0  0  0
    3.8417   -2.4500    0.0000 C   0  0  0  0  0  0  0  0  0  0  0  0
    2.4167   -2.4500    0.0000 C   0  0  0  0  0  0  0  0  0  0  0  0
    5.2708   -4.9250    0.0000 C   0  0  0  0  0  0  0  0  0  0  0  0
    1.7042   -2.0375    0.0000 C   0  0  0  0  0  0  0  0  0  0  0  0
    4.5583   -4.5125    0.0000 C   0  0  0  0  0  0  0  0  0  0  0  0
  2  1  1  0
  3  1  2  0
  4  2  2  0
  5  2  1  0
  6  1  1  0
  7  3  1  0
  8 11  1  0
  9  3  1  0
 10  7  1  0
 11 10  1  0
 12  8  1  0
 13  6  2  0
 14 12  1  0
 15  9  2  0
 13 15  1  0
M  END
>  <ID>  (1155) 


>  <MOLENAME>  (1155) 
ETOSALAMIDE

>  <therap>  (1155) 
analgesic, antifungal

>  <ref>  (1155) 
J. Pharm. Pharmacol. (1963), 15, 212-14. ; J. Chem. Eng. Data (1962), 7, 265-6; (1957), GB 774635 19570515,

>  <cas#>  (1155) 
15302-15-5

>  <source>  (1155) 
synthetic

>  <status>  (1155) 
INN, BAN

>  <tradename>  (1155) 
ETOSALAMIDUM

>  <SMILES>  (1155) 
CCOCCOc1c(C(N)=O)cccc1

>  <standardized_failed>  (1155) 
False

$$$$

     RDKit          2D

 24 26  0  0  0  0  0  0  0  0999 V2000
    4.4458   -6.5000    0.0000 C   0  0  0  0  0  0  0  0  0  0  0  0
    4.5333   -5.6792    0.0000 N   0  0  0  0  0  0  0  0  0  0  0  0
    3.6375   -6.6708    0.0000 O   0  0  0  0  0  0  0  0  0  0  0  0
    5.2458   -5.2625    0.0000 C   0  0  0  0  0  0  0  0  0  0  0  0
    6.6750   -4.4333    0.0000 C   0  0  0  0  0  0  0  0  0  0  0  0
    5.9583   -5.6750    0.0000 C   0  0  0  0  0  0  0  0  0  0  0  0
    6.6750   -5.2625    0.0000 C   0  0  0  0  0  0  0  0  0  0  0  0
    7.3875   -4.0167    0.0000 N   0  0  0  0  0  0  0  0  0  0  0  0
    3.2292   -5.9542    0.0000 C   0  0  0  0  0  0  0  0  0  0  0  0
    3.7792   -5.3417    0.0000 C   0  0  0  0  0  0  0  0  0  0  0  0
    5.9583   -4.0208    0.0000 C   0  0  0  0  0  0  0  0  0  0  0  0
    5.0583   -7.0500    0.0000 O   0  0  0  0  0  0  0  0  0  0  0  0
    1.1792   -5.2417    0.0000 C   0  0  0  0  0  0  0  0  0  0  0  0
    5.2458   -4.4375    0.0000 C   0  0  0  0  0  0  0  0  0  0  0  0
    2.0000   -5.2417    0.0000 N   0  0  0  0  0  0  0  0  0  0  0  0
    0.7667   -4.5292    0.0000 O   0  0  0  0  0  0  0  0  0  0  0  0
    8.8125   -3.1917    0.0000 O   0  0  0  0  0  0  0  0  0  0  0  0
    2.4042   -5.9542    0.0000 C   0  0  0  0  0  0  0  0  0  0  0  0
    7.3917   -5.6750    0.0000 F   0  0  0  0  0  0  0  0  0  0  0  0
    7.3792   -3.1917    0.0000 C   0  0  0  0  0  0  0  0  0  0  0  0
    8.1000   -4.4292    0.0000 C   0  0  0  0  0  0  0  0  0  0  0  0
    0.7625   -5.9542    0.0000 C   0  0  0  0  0  0  0  0  0  0  0  0
    8.0958   -2.7792    0.0000 C   0  0  0  0  0  0  0  0  0  0  0  0
    8.8125   -4.0167    0.0000 C   0  0  0  0  0  0  0  0  0  0  0  0
  2  1  1  0
  3  1  1  0
  4  2  1  0
  5  7  2  0
  6  4  2  0
  7  6  1  0
  8  5  1  0
  9  3  1  0
 10  2  1  0
 11 14  2  0
 12  1  2  0
 13 15  1  0
 14  4  1  0
 15 18  1  0
 16 13  2  0
 17 23  1  0
  9 18  1  1
 19  7  1  0
 20  8  1  0
 21  8  1  0
 22 13  1  0
 23 20  1  0
 24 21  1  0
  9 10  1  0
 11  5  1  0
 17 24  1  0
M  END
>  <ID>  (1156) 


>  <MOLENAME>  (1156) 
LINEZOLID

>  <therap>  (1156) 
antibacterial

>  <ref>  (1156) 
Ann. N. Y. Acad. Sci. (2011), 1222, 49-54; Antimicrob. Agents Chemother. (1996), 40(4), 1039-40; J. Med. Chem. (1996), 39(3), 673-9

>  <cas#>  (1156) 
165800-03-3

>  <source>  (1156) 
synthetic; U-100766

>  <status>  (1156) 
USAN, INN, BAN

>  <tradename>  (1156) 
ZYVOX

>  <SMILES>  (1156) 
CC(=O)NC[C@H]1CN(c2cc(F)c(N3CCOCC3)cc2)C(=O)O1

>  <standardized_failed>  (1156) 
False

$$$$

     RDKit          2D

 19 20  0  0  0  0  0  0  0  0999 V2000
    4.2500   -3.5417    0.0000 N   0  0  0  0  0  0  0  0  0  0  0  0
    3.4583   -2.4667    0.0000 C   0  0  0  0  0  0  0  0  0  0  0  0
    3.4625   -3.2917    0.0000 C   0  0  0  0  0  0  0  0  0  0  0  0
    4.2417   -2.2042    0.0000 N   0  0  0  0  0  0  0  0  0  0  0  0
    4.7333   -2.8708    0.0000 C   0  0  0  0  0  0  0  0  0  0  0  0
    7.3542   -4.3208    0.0000 P   0  0  0  0  0  0  0  0  0  0  0  0
    2.7417   -2.0542    0.0000 C   0  0  0  0  0  0  0  0  0  0  0  0
    2.7417   -3.7083    0.0000 N   0  0  0  0  0  0  0  0  0  0  0  0
    2.0292   -2.4667    0.0000 N   0  0  0  0  0  0  0  0  0  0  0  0
    4.5083   -4.3250    0.0000 C   0  0  0  0  0  0  0  0  0  0  0  0
    2.0292   -3.2958    0.0000 C   0  0  0  0  0  0  0  0  0  0  0  0
    6.6417   -4.7375    0.0000 C   0  0  0  0  0  0  0  0  0  0  0  0
    7.1417   -3.5250    0.0000 O   0  0  0  0  0  0  0  0  0  0  0  0
    8.1542   -4.1042    0.0000 O   0  0  0  0  0  0  0  0  0  0  0  0
    7.7667   -5.0375    0.0000 O   0  0  0  0  0  0  0  0  0  0  0  0
    5.9292   -4.3208    0.0000 O   0  0  0  0  0  0  0  0  0  0  0  0
    2.7375   -1.2292    0.0000 N   0  0  0  0  0  0  0  0  0  0  0  0
    5.2167   -4.7375    0.0000 C   0  0  0  0  0  0  0  0  0  0  0  0
    5.2208   -5.5625    0.0000 C   0  0  0  0  0  0  0  0  0  0  0  0
  2  3  2  0
  3  1  1  0
  4  5  2  0
  5  1  1  0
  6 12  1  0
  7  2  1  0
  8  3  1  0
  9 11  1  0
 10  1  1  0
 11  8  2  0
 12 16  1  0
 13  6  2  0
 14  6  1  0
 15  6  1  0
 16 18  1  0
 17  7  1  0
 18 10  1  0
 18 19  1  6
  2  4  1  0
  9  7  2  0
M  END
>  <ID>  (1157) 


>  <MOLENAME>  (1157) 
TENOFOVIR

>  <therap>  (1157) 
antiviral, RT inhibitor

>  <ref>  (1157) 
Biochem Biophys Res Commun 219:337 (1996); JAMA 292:191 (2004)

>  <cas#>  (1157) 
206184-49-8

>  <source>  (1157) 
synthetic; GS-1278

>  <status>  (1157) 
USAN, INN, BAN

>  <tradename>  (1157) 
VIREAD

>  <SMILES>  (1157) 
C[C@H](Cn1cnc2c1ncnc2N)OCP(=O)(O)O

>  <standardized_failed>  (1157) 
False

$$$$

     RDKit          2D

 43 45  0  0  0  0  0  0  0  0999 V2000
   10.4042   -1.4833    0.0000 C   0  0  0  0  0  0  0  0  0  0  0  0
    7.5417   -1.5125    0.0000 C   0  0  0  0  0  0  0  0  0  0  0  0
    8.9708   -1.5000    0.0000 C   0  0  0  0  0  0  0  0  0  0  0  0
    8.2542   -1.0958    0.0000 C   0  0  0  0  0  0  0  0  0  0  0  0
    6.1167   -1.5208    0.0000 C   0  0  0  0  0  0  0  0  0  0  0  0
    9.6833   -1.0792    0.0000 C   0  0  0  0  0  0  0  0  0  0  0  0
   10.4125   -2.3167    0.0000 C   0  0  0  0  0  0  0  0  0  0  0  0
    6.8250   -1.1042    0.0000 C   0  0  0  0  0  0  0  0  0  0  0  0
    6.1167   -2.3458    0.0000 C   0  0  0  0  0  0  0  0  0  0  0  0
    8.9792   -2.3292    0.0000 C   0  0  0  0  0  0  0  0  0  0  0  0
    7.5458   -2.3417    0.0000 C   0  0  0  0  0  0  0  0  0  0  0  0
    9.7000   -2.7375    0.0000 C   0  0  0  0  0  0  0  0  0  0  0  0
    5.4000   -2.7625    0.0000 C   0  0  0  0  0  0  0  0  0  0  0  0
    4.6875   -1.5250    0.0000 C   0  0  0  0  0  0  0  0  0  0  0  0
    4.6875   -2.3500    0.0000 C   0  0  0  0  0  0  0  0  0  0  0  0
    5.4000   -1.1083    0.0000 C   0  0  0  0  0  0  0  0  0  0  0  0
    6.8333   -2.7583    0.0000 C   0  0  0  0  0  0  0  0  0  0  0  0
    8.2625   -2.7500    0.0000 C   0  0  0  0  0  0  0  0  0  0  0  0
   11.1125   -1.0625    0.0000 C   0  0  0  0  0  0  0  0  0  0  0  0
    3.9750   -1.1125    0.0000 N   0  0  0  0  0  0  0  0  0  0  0  0
    3.2625   -1.5250    0.0000 C   0  0  0  0  0  0  0  0  0  0  0  0
    5.4042   -3.5875    0.0000 N   0  0  0  0  0  0  0  0  0  0  0  0
    9.6750   -0.2542    0.0000 O   0  0  0  0  0  0  0  0  0  0  0  0
    6.8208   -0.2792    0.0000 O   0  0  0  0  0  0  0  0  0  0  0  0
    9.6917   -3.5625    0.0000 N   0  0  0  0  0  0  0  0  0  0  0  0
   11.1042   -0.2375    0.0000 O   0  0  0  0  0  0  0  0  0  0  0  0
    1.8375   -1.5250    0.0000 N   0  0  0  0  0  0  0  0  0  0  0  0
    8.2458   -0.2708    0.0000 O   0  0  0  0  0  0  0  0  0  0  0  0
   11.1292   -2.7208    0.0000 O   0  0  0  0  0  0  0  0  0  0  0  0
    3.2542   -2.3500    0.0000 O   0  0  0  0  0  0  0  0  0  0  0  0
    1.1208   -1.1125    0.0000 C   0  0  0  0  0  0  0  0  0  0  0  0
   11.8333   -1.4667    0.0000 N   0  0  0  0  0  0  0  0  0  0  0  0
    2.5500   -1.1125    0.0000 C   0  0  0  0  0  0  0  0  0  0  0  0
    5.3958   -0.2833    0.0000 O   0  0  0  0  0  0  0  0  0  0  0  0
    8.9917   -0.5417    0.0000 O   0  0  0  0  0  0  0  0  0  0  0  0
    4.6917   -4.0042    0.0000 C   0  0  0  0  0  0  0  0  0  0  0  0
    6.1208   -4.0000    0.0000 C   0  0  0  0  0  0  0  0  0  0  0  0
   10.4042   -3.9750    0.0000 C   0  0  0  0  0  0  0  0  0  0  0  0
    8.9750   -3.9708    0.0000 C   0  0  0  0  0  0  0  0  0  0  0  0
    1.1208   -0.2875    0.0000 C   0  0  0  0  0  0  0  0  0  0  0  0
    0.4042   -0.7000    0.0000 C   0  0  0  0  0  0  0  0  0  0  0  0
    0.4083   -1.5250    0.0000 C   0  0  0  0  0  0  0  0  0  0  0  0
    8.9917   -1.3667    0.0000 C   0  0  0  0  0  0  0  0  0  0  0  0
  2  4  2  0
  3  6  1  0
  4  3  1  0
  5  8  1  0
  6  1  1  0
  7  1  2  0
  8  2  1  0
  9 17  1  0
 10  3  1  0
 11 18  1  6
 12  7  1  0
 13  9  2  0
 14 16  1  0
 15 13  1  0
 16  5  2  0
 11 17  1  0
 10 18  1  6
 19  1  1  0
 20 14  1  0
 21 20  1  0
 22 13  1  0
 23  6  2  0
 24  8  2  0
 12 25  1  1
 26 19  2  0
 27 33  1  0
 28  4  1  0
 29  7  1  0
 30 21  2  0
 31 27  1  0
 32 19  1  0
 33 21  1  0
 34 16  1  0
 36 22  1  0
 37 22  1  0
 38 25  1  0
 39 25  1  0
 40 31  1  0
 41 31  1  0
 42 31  1  0
 43 35  1  0
 12 10  1  0
 11  2  1  0
  9  5  1  0
 15 14  2  0
M  END
>  <ID>  (1158) 


>  <MOLENAME>  (1158) 
TIGECYCLINE

>  <therap>  (1158) 
antibacterial

>  <ref>  (1158) 
Drugs 65:1317 (2005); Expert Opin Invest Drugs 15:155 (2006)

>  <cas#>  (1158) 
220620-09-7

>  <source>  (1158) 
synthetic; WAY-GAR-936

>  <status>  (1158) 
USAN, INN, BAN

>  <tradename>  (1158) 
TYGACIL

>  <SMILES>  (1158) 
CN(C)c1c2C[C@H]3C[C@@H]4C(C(=O)C(C(N)=O)=C(O)[C@H]4N(C)C)C(O)=C3C(=O)c2c(O)c(NC(=O)CNC(C)(C)C)c1

>  <standardized_failed>  (1158) 
False

$$$$

     RDKit          2D

 33 33  0  0  0  0  0  0  0  0999 V2000
    1.9333   -2.5667    0.0000 C   0  0  0  0  0  0  0  0  0  0  0  0
    1.9292   -1.7417    0.0000 C   0  0  0  0  0  0  0  0  0  0  0  0
    0.5000   -1.7417    0.0000 N   0  0  0  0  0  0  0  0  0  0  0  0
    1.2125   -1.3292    0.0000 C   0  0  0  0  0  0  0  0  0  0  0  0
    1.2125   -2.9833    0.0000 N   0  0  0  0  0  0  0  0  0  0  0  0
    0.5000   -2.5708    0.0000 C   0  0  0  0  0  0  0  0  0  0  0  0
    2.7208   -2.8167    0.0000 N   0  0  0  0  0  0  0  0  0  0  0  0
    2.7125   -1.4792    0.0000 C   0  0  0  0  0  0  0  0  0  0  0  0
    6.5250   -1.9125    0.0000 C   0  0  0  0  0  0  0  0  0  0  0  0
    7.2375   -1.5000    0.0000 N   0  0  0  0  0  0  0  0  0  0  0  0
    3.2042   -2.1458    0.0000 C   0  0  0  0  0  0  0  0  0  0  0  0
    7.9583   -2.7333    0.0000 C   0  0  0  0  0  0  0  0  0  0  0  0
    7.9542   -1.9083    0.0000 C   0  0  0  0  0  0  0  0  0  0  0  0
   10.0958   -1.4875    0.0000 C   0  0  0  0  0  0  0  0  0  0  0  0
    1.2083   -0.5042    0.0000 O   0  0  0  0  0  0  0  0  0  0  0  0
    5.8083   -1.5042    0.0000 C   0  0  0  0  0  0  0  0  0  0  0  0
    8.6708   -3.1417    0.0000 O   0  0  0  0  0  0  0  0  0  0  0  0
    6.5292   -2.7375    0.0000 O   0  0  0  0  0  0  0  0  0  0  0  0
   10.8125   -1.9000    0.0000 O   0  0  0  0  0  0  0  0  0  0  0  0
    7.2417   -3.1500    0.0000 O   0  0  0  0  0  0  0  0  0  0  0  0
    2.9625   -0.6958    0.0000 C   0  0  0  0  0  0  0  0  0  0  0  0
   -0.2167   -2.9833    0.0000 N   0  0  0  0  0  0  0  0  0  0  0  0
   10.0917   -0.6625    0.0000 O   0  0  0  0  0  0  0  0  0  0  0  0
    8.6667   -1.4917    0.0000 C   0  0  0  0  0  0  0  0  0  0  0  0
    5.8042   -0.6833    0.0000 C   0  0  0  0  0  0  0  0  0  0  0  0
    5.0958   -1.9167    0.0000 C   0  0  0  0  0  0  0  0  0  0  0  0
    9.3833   -1.9042    0.0000 C   0  0  0  0  0  0  0  0  0  0  0  0
    4.3875   -0.6875    0.0000 C   0  0  0  0  0  0  0  0  0  0  0  0
    3.6750   -0.2792    0.0000 C   0  0  0  0  0  0  0  0  0  0  0  0
    4.3833   -1.5042    0.0000 C   0  0  0  0  0  0  0  0  0  0  0  0
    5.1000   -0.2792    0.0000 C   0  0  0  0  0  0  0  0  0  0  0  0
    9.4625   -3.8542    0.0000 Na  0  0  0  0  0 15  0  0  0  0  0  0
   11.9917   -2.1750    0.0000 Na  0  0  0  0  0 15  0  0  0  0  0  0
  2  1  2  0
  3  6  2  0
  4  2  1  0
  5  1  1  0
  6  5  1  0
  7  1  1  0
  8  2  1  0
  9 16  1  0
 10  9  1  0
 11  7  1  0
 13 12  1  0
 13 10  1  0
 14 27  1  0
 15  4  2  0
 16 26  2  0
 17 12  1  0
 18  9  2  0
 19 14  1  0
 20 12  2  0
 21  8  1  0
 22  6  1  0
 23 14  2  0
 13 24  1  1
 25 31  2  0
 26 30  1  0
 27 24  1  0
 28 29  1  0
 29 21  1  0
 30 28  2  0
 31 28  1  0
  3  4  1  0
  8 11  2  0
 25 16  1  0
M  CHG  4  17  -1  19  -1  32   1  33   1
M  END
>  <ID>  (1159) 


>  <MOLENAME>  (1159) 
PEMETREXED

>  <therap>  (1159) 
antineoplastic, thymidylate synthase inhibitor

>  <ref>  (1159) 
Oncologist. 6:363 (2001);14:930 (2009); Lung Cancer 66:141 (2009)

>  <cas#>  (1159) 
137281-23-3

>  <source>  (1159) 
synthetic; LY-231514

>  <status>  (1159) 
USAN, INN, BAN

>  <tradename>  (1159) 
ALIMTA

>  <SMILES>  (1159) 
Nc1nc(=O)c2c([nH]cc2CCc2ccc(C(=O)N[C@@H](CCC(=O)O)C(=O)O)cc2)[nH]1

>  <standardized_failed>  (1159) 
False

$$$$

     RDKit          2D

 29 32  0  0  0  0  0  0  0  0999 V2000
    3.0917   -2.2667    0.0000 C   0  0  0  0  0  0  0  0  0  0  0  0
    3.0917   -3.0167    0.0000 C   0  0  0  0  0  0  0  0  0  0  0  0
    2.4417   -3.3917    0.0000 C   0  0  0  0  0  0  0  0  0  0  0  0
   -1.5583   -4.5250    0.0000 C   0  0  0  0  0  0  0  0  0  0  0  0
    1.7917   -3.0167    0.0000 C   0  0  0  0  0  0  0  0  0  0  0  0
    1.1500   -3.3917    0.0000 C   0  0  0  0  0  0  0  0  0  0  0  0
    1.1500   -4.1417    0.0000 C   0  0  0  0  0  0  0  0  0  0  0  0
    2.4375   -1.9000    0.0000 C   0  0  0  0  0  0  0  0  0  0  0  0
    1.7917   -2.2667    0.0000 C   0  0  0  0  0  0  0  0  0  0  0  0
   -0.8000   -4.5250    0.0000 O   0  0  0  0  0  0  0  0  0  0  0  0
    2.4417   -4.1417    0.0000 C   0  0  0  0  0  0  0  0  0  0  0  0
    3.8042   -3.2500    0.0000 C   0  0  0  0  0  0  0  0  0  0  0  0
    0.5000   -3.0167    0.0000 C   0  0  0  0  0  0  0  0  0  0  0  0
   -1.9333   -5.1750    0.0000 N   0  0  0  0  0  0  0  0  0  0  0  0
    3.8042   -2.0417    0.0000 C   0  0  0  0  0  0  0  0  0  0  0  0
   -1.9375   -3.8667    0.0000 O   0  0  0  0  0  0  0  0  0  0  0  0
    0.5000   -4.5167    0.0000 C   0  0  0  0  0  0  0  0  0  0  0  0
   -0.1500   -4.1417    0.0000 C   0  0  0  0  0  0  0  0  0  0  0  0
    1.7917   -4.5167    0.0000 C   0  0  0  0  0  0  0  0  0  0  0  0
    4.2417   -2.6375    0.0000 C   0  0  0  0  0  0  0  0  0  0  0  0
   -0.1500   -3.3917    0.0000 C   0  0  0  0  0  0  0  0  0  0  0  0
    3.1042   -1.5167    0.0000 C   0  0  0  0  0  0  0  0  0  0  0  0
    3.9667   -1.3125    0.0000 O   0  0  0  0  0  0  0  0  0  0  0  0
   -0.8333   -6.8042    0.0000 Cl  0  0  0  0  0  0  0  0  0  0  0  0
   -3.8708   -5.0292    0.0000 Cl  0  0  0  0  0  0  0  0  0  0  0  0
   -2.6458   -5.3625    0.0000 C   0  0  0  0  0  0  0  0  0  0  0  0
   -1.7458   -5.8917    0.0000 C   0  0  0  0  0  0  0  0  0  0  0  0
   -3.1625   -4.8417    0.0000 C   0  0  0  0  0  0  0  0  0  0  0  0
   -1.0208   -6.0875    0.0000 C   0  0  0  0  0  0  0  0  0  0  0  0
  2  1  1  0
  3  2  1  0
  4 10  1  0
  5  9  1  0
  6  5  1  0
  7  6  2  0
  8  1  1  0
  9  8  1  0
 10 18  1  0
 11  3  1  0
 12  2  1  0
 13  6  1  0
 14  4  1  0
 15  1  1  0
 16  4  2  0
 17  7  1  0
 18 17  2  0
 19 11  1  0
 20 15  1  0
 21 13  2  0
  1 22  1  1
 15 23  1  1
 24 29  1  0
 25 28  1  0
 26 14  1  0
 27 14  1  0
 28 26  1  0
 29 27  1  0
 12 20  1  0
  5  3  1  0
  7 19  1  0
 21 18  1  0
M  END
>  <ID>  (1160) 


>  <MOLENAME>  (1160) 
ESTRAMUSTINE

>  <therap>  (1160) 
antineoplastic

>  <ref>  (1160) 
Am. J. Cancer (2003), 2(5), 373-390; Pharmacol. Ther. (1989), 43(3), 299-319; J. Med. Chem. (1967), 10(2), 172-4

>  <cas#>  (1160) 
2998-57-4

>  <source>  (1160) 
synthetic; RO-22-2296

>  <status>  (1160) 
USAN, INN, BAN

>  <tradename>  (1160) 
nan

>  <SMILES>  (1160) 
C[C@]12CCC3c4c(cc(OC(=O)N(CCCl)CCCl)cc4)CCC3C1CC[C@@H]2O

>  <standardized_failed>  (1160) 
False

$$$$

     RDKit          2D

 29 34  0  0  0  0  0  0  0  0999 V2000
    3.2542   -5.5042    0.0000 N   0  0  0  0  0  0  0  0  0  0  0  0
    1.8417   -5.5042    0.0000 C   0  0  0  0  0  0  0  0  0  0  0  0
    1.8292   -4.6792    0.0000 C   0  0  0  0  0  0  0  0  0  0  0  0
    2.5500   -5.9167    0.0000 C   0  0  0  0  0  0  0  0  0  0  0  0
    3.2625   -4.6792    0.0000 C   0  0  0  0  0  0  0  0  0  0  0  0
    3.9667   -5.9167    0.0000 C   0  0  0  0  0  0  0  0  0  0  0  0
    1.0542   -5.7667    0.0000 N   0  0  0  0  0  0  0  0  0  0  0  0
    3.9750   -4.2667    0.0000 C   0  0  0  0  0  0  0  0  0  0  0  0
    4.6875   -4.6875    0.0000 N   0  0  0  0  0  0  0  0  0  0  0  0
    2.5500   -4.2667    0.0000 C   0  0  0  0  0  0  0  0  0  0  0  0
    2.5417   -6.7417    0.0000 C   0  0  0  0  0  0  0  0  0  0  0  0
    1.0500   -4.4292    0.0000 C   0  0  0  0  0  0  0  0  0  0  0  0
    0.5667   -5.1000    0.0000 C   0  0  0  0  0  0  0  0  0  0  0  0
    4.6875   -5.5125    0.0000 C   0  0  0  0  0  0  0  0  0  0  0  0
    1.8250   -7.1417    0.0000 C   0  0  0  0  0  0  0  0  0  0  0  0
    1.8125   -7.9667    0.0000 C   0  0  0  0  0  0  0  0  0  0  0  0
    3.9625   -6.7417    0.0000 O   0  0  0  0  0  0  0  0  0  0  0  0
    2.5250   -8.3875    0.0000 C   0  0  0  0  0  0  0  0  0  0  0  0
    1.1917   -8.5167    0.0000 O   0  0  0  0  0  0  0  0  0  0  0  0
    3.9792   -3.4417    0.0000 O   0  0  0  0  0  0  0  0  0  0  0  0
    2.3500   -9.1917    0.0000 O   0  0  0  0  0  0  0  0  0  0  0  0
    3.2500   -7.1542    0.0000 C   0  0  0  0  0  0  0  0  0  0  0  0
    1.5292   -9.2750    0.0000 C   0  0  0  0  0  0  0  0  0  0  0  0
    3.2417   -7.9792    0.0000 C   0  0  0  0  0  0  0  0  0  0  0  0
    5.4042   -4.2792    0.0000 C   0  0  0  0  0  0  0  0  0  0  0  0
    0.7167   -3.6792    0.0000 C   0  0  0  0  0  0  0  0  0  0  0  0
   -0.2458   -5.0167    0.0000 C   0  0  0  0  0  0  0  0  0  0  0  0
   -0.1083   -3.6000    0.0000 C   0  0  0  0  0  0  0  0  0  0  0  0
   -0.5875   -4.2667    0.0000 C   0  0  0  0  0  0  0  0  0  0  0  0
  2  4  1  0
  3 10  1  0
  4  1  1  0
  5  1  1  0
  6  1  1  0
  7  2  1  0
  5  8  1  0
  9 14  1  0
  5 10  1  6
  4 11  1  6
 12  3  1  0
 13  7  1  0
 14  6  1  0
 15 11  2  0
 16 15  1  0
 17  6  2  0
 18 24  1  0
 19 16  1  0
 20  8  2  0
 21 18  1  0
 22 11  1  0
 23 19  1  0
 24 22  2  0
 25  9  1  0
 26 12  2  0
 27 13  2  0
 28 26  1  0
 29 27  1  0
  8  9  1  0
  3  2  2  0
 12 13  1  0
 16 18  2  0
 21 23  1  0
 29 28  2  0
M  END
>  <ID>  (1161) 


>  <MOLENAME>  (1161) 
TADALAFIL

>  <therap>  (1161) 
erectile dysfunction therapy

>  <ref>  (1161) 
Int J Impotence Res 14 Suppl 1:S57 (2002); Exp Opin Pharmacother 6:75 (2005) 

>  <cas#>  (1161) 
171596-29-5

>  <source>  (1161) 
synthetic; GF-196960, IC-351

>  <status>  (1161) 
USAN, INN

>  <tradename>  (1161) 
CIALIS

>  <SMILES>  (1161) 
CN1CC(=O)N2[C@H](Cc3c([nH]c4ccccc34)[C@H]2c2cc3c(cc2)OCO3)C1=O

>  <standardized_failed>  (1161) 
False

$$$$

     RDKit          2D

 15 14  0  0  0  0  0  0  0  0999 V2000
    4.9167    0.2083    0.0000 C   0  0  0  0  0  0  0  0  0  0  0  0
    5.6292    0.6208    0.0000 C   0  0  0  0  0  0  0  0  0  0  0  0
    3.4917    0.2000    0.0000 N   0  0  0  0  0  0  0  0  0  0  0  0
    2.7792   -0.2125    0.0000 C   0  0  0  0  0  0  0  0  0  0  0  0
    2.0667    0.1958    0.0000 C   0  0  0  0  0  0  0  0  0  0  0  0
    4.2042   -0.2042    0.0000 C   0  0  0  0  0  0  0  0  0  0  0  0
    1.3542   -0.2167    0.0000 C   0  0  0  0  0  0  0  0  0  0  0  0
    5.5167   -1.2417    0.0000 Cl  0  0  0  0  0  0  0  0  0  0  0  0
    3.4917    1.0250    0.0000 C   0  0  0  0  0  0  0  0  0  0  0  0
    2.7792   -1.0375    0.0000 C   0  0  0  0  0  0  0  0  0  0  0  0
    1.3542   -1.0417    0.0000 C   0  0  0  0  0  0  0  0  0  0  0  0
    0.6417    0.1958    0.0000 C   0  0  0  0  0  0  0  0  0  0  0  0
    0.6417   -1.4542    0.0000 C   0  0  0  0  0  0  0  0  0  0  0  0
   -0.0708   -0.2167    0.0000 C   0  0  0  0  0  0  0  0  0  0  0  0
   -0.0708   -1.0417    0.0000 C   0  0  0  0  0  0  0  0  0  0  0  0
  2  1  3  0
  3  6  1  0
  4  3  1  0
  5  4  1  0
  6  1  1  0
  7  5  1  0
  9  3  1  0
 10  4  1  0
 11  7  2  0
 12  7  1  0
 13 11  1  0
 14 12  2  0
 15 13  2  0
 14 15  1  0
M  END
>  <ID>  (1162) 


>  <MOLENAME>  (1162) 
SELEGILINE HYDROCHLORIDE

>  <therap>  (1162) 
antidepressant, MAO inhibitor, antiparkinsonian

>  <ref>  (1162) 
J Org Chem 42:2637 (1977); Am J Psychiatry 150:321 (1993)

>  <cas#>  (1162) 
14611-52-0

>  <source>  (1162) 
synthetic

>  <status>  (1162) 
USP, INN, BAN

>  <tradename>  (1162) 
EMSAM

>  <SMILES>  (1162) 
C#CCN(C)C(C)Cc1ccccc1

>  <standardized_failed>  (1162) 
False

$$$$

     RDKit          2D

 17 16  0  0  0  0  0  0  0  0999 V2000
    5.0208   -1.8625    0.0000 C   0  0  0  0  0  0  0  0  0  0  0  0
    5.7375   -3.1000    0.0000 C   0  0  0  0  0  0  0  0  0  0  0  0
    5.0208   -2.6875    0.0000 C   0  0  0  0  0  0  0  0  0  0  0  0
    6.4500   -2.6875    0.0000 C   0  0  0  0  0  0  0  0  0  0  0  0
    5.7375   -1.4500    0.0000 C   0  0  0  0  0  0  0  0  0  0  0  0
    7.1667   -3.1000    0.0000 N   0  0  0  0  0  0  0  0  0  0  0  0
    5.7375   -0.6208    0.0000 C   0  0  0  0  0  0  0  0  0  0  0  0
    9.4000   -1.3667    0.0000 Cl  0  0  0  0  0  0  0  0  0  0  0  0
    6.4500   -0.2042    0.0000 O   0  0  0  0  0  0  0  0  0  0  0  0
    4.3083   -1.4500    0.0000 C   0  0  0  0  0  0  0  0  0  0  0  0
    4.3083   -0.6250    0.0000 C   0  0  0  0  0  0  0  0  0  0  0  0
    5.7375   -3.9250    0.0000 C   0  0  0  0  0  0  0  0  0  0  0  0
    4.3083   -3.1000    0.0000 C   0  0  0  0  0  0  0  0  0  0  0  0
    5.0208   -0.2083    0.0000 C   0  0  0  0  0  0  0  0  0  0  0  0
    7.8792   -2.6875    0.0000 C   0  0  0  0  0  0  0  0  0  0  0  0
    7.1667   -3.9250    0.0000 C   0  0  0  0  0  0  0  0  0  0  0  0
    4.3083   -3.9250    0.0000 C   0  0  0  0  0  0  0  0  0  0  0  0
  2  3  1  0
  3  1  1  0
  4  2  1  0
  5  1  2  0
  6  4  1  0
  7  5  1  0
  9  7  1  0
 10  1  1  0
 11 10  2  0
  2 12  1  6
  3 13  1  6
 14 11  1  0
 15  6  1  0
 16  6  1  0
 17 13  1  0
 14  7  2  0
M  END
>  <ID>  (1163) 


>  <MOLENAME>  (1163) 
TAPENTADOL HYDROCHLORIDE

>  <therap>  (1163) 
analgesic, norepinephrine uptake blocker, mu-opiod receptor agonist

>  <ref>  (1163) 
J Pharmacol Exp Ther 323:265 (2007); Anesth Analg 107:2048 (2008)

>  <cas#>  (1163) 
175591-23-8

>  <source>  (1163) 
synthetic; CG-5503

>  <status>  (1163) 
USAN, INN

>  <tradename>  (1163) 
NUCYNTA

>  <SMILES>  (1163) 
CC[C@H](c1cc(O)ccc1)[C@@H](C)CN(C)C

>  <standardized_failed>  (1163) 
False

$$$$

     RDKit          2D

 47 50  0  0  0  0  0  0  0  0999 V2000
    4.7542   -1.8917    0.0000 C   0  0  0  0  0  0  0  0  0  0  0  0
    1.1917   -1.5000    0.0000 O   0  0  0  0  0  0  0  0  0  0  0  0
    8.3250   -3.1167    0.0000 C   0  0  0  0  0  0  0  0  0  0  0  0
    8.3167   -2.3000    0.0000 C   0  0  0  0  0  0  0  0  0  0  0  0
    1.9042   -1.9042    0.0000 C   0  0  0  0  0  0  0  0  0  0  0  0
    9.0292   -1.8875    0.0000 C   0  0  0  0  0  0  0  0  0  0  0  0
    6.1792   -1.0750    0.0000 C   0  0  0  0  0  0  0  0  0  0  0  0
    1.1917   -2.3250    0.0000 C   0  0  0  0  0  0  0  0  0  0  0  0
    6.1792   -1.9000    0.0000 C   0  0  0  0  0  0  0  0  0  0  0  0
    9.0417   -3.5292    0.0000 O   0  0  0  0  0  0  0  0  0  0  0  0
    5.4667   -2.3125    0.0000 O   0  0  0  0  0  0  0  0  0  0  0  0
    9.7500   -2.2917    0.0000 C   0  0  0  0  0  0  0  0  0  0  0  0
    5.4667   -0.6542    0.0000 C   0  0  0  0  0  0  0  0  0  0  0  0
    4.7500   -1.0667    0.0000 C   0  0  0  0  0  0  0  0  0  0  0  0
    9.7500   -3.1167    0.0000 C   0  0  0  0  0  0  0  0  0  0  0  0
    6.9000   -0.6625    0.0000 C   0  0  0  0  0  0  0  0  0  0  0  0
    4.0417   -2.3042    0.0000 C   0  0  0  0  0  0  0  0  0  0  0  0
    1.1917   -3.1500    0.0000 C   0  0  0  0  0  0  0  0  0  0  0  0
    0.4792   -4.3792    0.0000 C   0  0  0  0  0  0  0  0  0  0  0  0
    2.6167   -2.3167    0.0000 C   0  0  0  0  0  0  0  0  0  0  0  0
    7.6125   -3.5375    0.0000 O   0  0  0  0  0  0  0  0  0  0  0  0
    6.8917   -2.3042    0.0000 C   0  0  0  0  0  0  0  0  0  0  0  0
    1.2000   -4.8000    0.0000 O   0  0  0  0  0  0  0  0  0  0  0  0
    0.4792   -3.5625    0.0000 C   0  0  0  0  0  0  0  0  0  0  0  0
    6.8917   -3.1292    0.0000 C   0  0  0  0  0  0  0  0  0  0  0  0
    3.3292   -1.9042    0.0000 C   0  0  0  0  0  0  0  0  0  0  0  0
    6.9042    0.1625    0.0000 O   0  0  0  0  0  0  0  0  0  0  0  0
   -0.2333   -4.8000    0.0000 O   0  0  0  0  0  0  0  0  0  0  0  0
    9.0292   -1.0625    0.0000 N   0  0  0  0  0  0  0  0  0  0  0  0
    5.4750   -4.7875    0.0000 C   0  0  0  0  0  0  0  0  0  0  0  0
    4.7667   -6.0250    0.0000 C   0  0  0  0  0  0  0  0  0  0  0  0
    5.4792   -5.6125    0.0000 C   0  0  0  0  0  0  0  0  0  0  0  0
    4.0542   -5.6167    0.0000 C   0  0  0  0  0  0  0  0  0  0  0  0
    6.1875   -4.3667    0.0000 C   0  0  0  0  0  0  0  0  0  0  0  0
    3.3417   -6.0292    0.0000 C   0  0  0  0  0  0  0  0  0  0  0  0
    6.1792   -3.5417    0.0000 C   0  0  0  0  0  0  0  0  0  0  0  0
    4.7500   -2.7167    0.0000 O   0  0  0  0  0  0  0  0  0  0  0  0
    7.5500   -1.8792    0.0000 O   0  0  0  0  0  0  0  0  0  0  0  0
    2.6292   -5.6167    0.0000 C   0  0  0  0  0  0  0  0  0  0  0  0
   10.4667   -1.8792    0.0000 O   0  0  0  0  0  0  0  0  0  0  0  0
    5.4667    0.1708    0.0000 O   0  0  0  0  0  0  0  0  0  0  0  0
    7.6125   -1.0792    0.0000 O   0  0  0  0  0  0  0  0  0  0  0  0
    1.2042   -5.6250    0.0000 C   0  0  0  0  0  0  0  0  0  0  0  0
    3.3250   -1.0792    0.0000 O   0  0  0  0  0  0  0  0  0  0  0  0
   10.4667   -3.5292    0.0000 C   0  0  0  0  0  0  0  0  0  0  0  0
    1.9167   -6.0292    0.0000 C   0  0  0  0  0  0  0  0  0  0  0  0
    0.4917   -6.0375    0.0000 C   0  0  0  0  0  0  0  0  0  0  0  0
  2  5  1  0
  3 21  1  1
  4  3  1  0
  5 20  1  0
  6  4  1  0
  7 13  1  0
  8  5  1  0
  9 11  1  0
 10  3  1  0
 11  1  1  0
 12 15  1  0
 13 14  1  0
 14  1  1  0
 15 10  1  0
 16  7  1  0
 17  1  1  0
 18  8  1  0
 19 24  1  0
 20 26  1  0
 21 25  1  0
 22  9  1  0
 23 19  1  0
 24 18  2  0
 25 22  1  0
 26 17  1  0
 27 16  2  0
 28 19  2  0
  6 29  1  1
 30 34  1  0
 31 32  1  0
 32 30  2  0
 33 31  2  0
 34 36  2  0
 35 33  1  0
 36 25  1  0
 37  1  1  0
  4 38  1  1
 39 46  1  0
 12 40  1  6
 41 13  1  0
 42 16  1  0
 43 23  1  0
 44 26  1  0
 15 45  1  1
 46 43  1  0
 47 43  1  0
  7  9  1  0
  2  8  1  0
 12  6  1  0
 39 35  2  0
M  END
>  <ID>  (1164) 


>  <MOLENAME>  (1164) 
NATAMYCIN

>  <therap>  (1164) 
antibacterial

>  <ref>  (1164) 
Acta Chem. Scand. (1964), 18(1), 126-34; Antibiot. Chemother. (1963), 11, 261-72; Antibiot. Chemother. (1960), 10, 285-6

>  <cas#>  (1164) 
7681-93-8

>  <source>  (1164) 
Steptomyces natalensis; CL-12625, A-5283

>  <status>  (1164) 
USP, INN, BAN, JAN

>  <tradename>  (1164) 
NATACYN

>  <SMILES>  (1164) 
CC1C/C=C/C=C/C=C/C=C/C(O[C@@H]2O[C@H](C)[C@@H](O)[C@H](N)[C@@H]2O)CC2OC(O)(CC(O)CC3OC3/C=C/C(=O)O1)CC(O)C2C(=O)O

>  <standardized_failed>  (1164) 
False

$$$$

     RDKit          2D

  8  7  0  0  0  0  0  0  0  0999 V2000
    5.1417   -0.7417    0.0000 C   0  0  0  0  0  0  0  0  0  0  0  0
    4.4292   -1.1542    0.0000 C   0  0  0  0  0  0  0  0  0  0  0  0
    5.8542   -1.1542    0.0000 O   0  0  0  0  0  0  0  0  0  0  0  0
    3.7167   -0.7417    0.0000 C   0  0  0  0  0  0  0  0  0  0  0  0
    3.7125    0.0833    0.0000 O   0  0  0  0  0  0  0  0  0  0  0  0
    5.1417    0.0833    0.0000 C   0  0  0  0  0  0  0  0  0  0  0  0
    5.1375   -1.5667    0.0000 C   0  0  0  0  0  0  0  0  0  0  0  0
    3.0042   -1.1542    0.0000 C   0  0  0  0  0  0  0  0  0  0  0  0
  2  1  1  0
  3  1  1  0
  4  2  1  0
  5  4  1  0
  6  1  1  0
  7  1  1  0
  8  4  1  0
M  END
>  <ID>  (1165) 


>  <MOLENAME>  (1165) 
HEXYLENE GLYCOL

>  <therap>  (1165) 
humectant

>  <ref>  (1165) 
Acta Derm.-Venereol. (1991), 71(2), 148-50

>  <cas#>  (1165) 
107-41-5

>  <source>  (1165) 
synthetic; PC-1

>  <status>  (1165) 
NF

>  <tradename>  (1165) 
nan

>  <SMILES>  (1165) 
CC(O)CC(C)(C)O

>  <standardized_failed>  (1165) 
False

$$$$

     RDKit          2D

 53 59  0  0  0  0  0  0  0  0999 V2000
    5.6042   -0.2542    0.0000 C   0  0  0  0  0  0  0  0  0  0  0  0
    5.5042   -1.1667    0.0000 N   0  0  0  0  0  0  0  0  0  0  0  0
    4.7792    0.1208    0.0000 O   0  0  0  0  0  0  0  0  0  0  0  0
    4.1542   -0.5542    0.0000 C   0  0  0  0  0  0  0  0  0  0  0  0
    2.0250   -2.6292    0.0000 C   0  0  0  0  0  0  0  0  0  0  0  0
    4.6125   -1.3500    0.0000 C   0  0  0  0  0  0  0  0  0  0  0  0
    7.0792   -1.3500    0.0000 C   0  0  0  0  0  0  0  0  0  0  0  0
    6.2375   -1.7125    0.0000 C   0  0  0  0  0  0  0  0  0  0  0  0
    7.1792   -0.4375    0.0000 N   0  0  0  0  0  0  0  0  0  0  0  0
    1.9292   -4.4292    0.0000 C   0  0  0  0  0  0  0  0  0  0  0  0
    6.4500    0.1125    0.0000 C   0  0  0  0  0  0  0  0  0  0  0  0
    2.7417   -3.0417    0.0000 C   0  0  0  0  0  0  0  0  0  0  0  0
    2.0250   -1.8042    0.0000 C   0  0  0  0  0  0  0  0  0  0  0  0
    1.3125   -3.0417    0.0000 C   0  0  0  0  0  0  0  0  0  0  0  0
    2.7375   -1.3917    0.0000 C   0  0  0  0  0  0  0  0  0  0  0  0
    3.4375   -0.1500    0.0000 N   0  0  0  0  0  0  0  0  0  0  0  0
    3.4625   -2.6292    0.0000 N   0  0  0  0  0  0  0  0  0  0  0  0
    1.3125   -3.8667    0.0000 C   0  0  0  0  0  0  0  0  0  0  0  0
   10.6167   -1.6417    0.0000 C   0  0  0  0  0  0  0  0  0  0  0  0
   11.1917   -1.3167    0.0000 C   0  0  0  0  0  0  0  0  0  0  0  0
    2.7292   -0.5667    0.0000 C   0  0  0  0  0  0  0  0  0  0  0  0
    2.7125   -4.1792    0.0000 C   0  0  0  0  0  0  0  0  0  0  0  0
    1.6000   -5.1667    0.0000 C   0  0  0  0  0  0  0  0  0  0  0  0
    0.7750   -5.0917    0.0000 N   0  0  0  0  0  0  0  0  0  0  0  0
    3.4625   -1.8042    0.0000 C   0  0  0  0  0  0  0  0  0  0  0  0
   10.6167   -2.3042    0.0000 C   0  0  0  0  0  0  0  0  0  0  0  0
   11.7542   -1.6417    0.0000 C   0  0  0  0  0  0  0  0  0  0  0  0
    0.6000   -4.2792    0.0000 C   0  0  0  0  0  0  0  0  0  0  0  0
    6.1292   -2.6167    0.0000 C   0  0  0  0  0  0  0  0  0  0  0  0
    7.8167   -1.8917    0.0000 O   0  0  0  0  0  0  0  0  0  0  0  0
    5.6042    0.6583    0.0000 O   0  0  0  0  0  0  0  0  0  0  0  0
    4.1417   -2.0667    0.0000 O   0  0  0  0  0  0  0  0  0  0  0  0
    2.0083   -0.1542    0.0000 O   0  0  0  0  0  0  0  0  0  0  0  0
   12.3292   -1.3167    0.0000 O   0  0  0  0  0  0  0  0  0  0  0  0
   11.1917   -2.6292    0.0000 O   0  0  0  0  0  0  0  0  0  0  0  0
   11.1917   -0.6542    0.0000 O   0  0  0  0  0  0  0  0  0  0  0  0
   10.0500   -1.3125    0.0000 O   0  0  0  0  0  0  0  0  0  0  0  0
    7.9292    0.0958    0.0000 C   0  0  0  0  0  0  0  0  0  0  0  0
    4.2042    0.3083    0.0000 C   0  0  0  0  0  0  0  0  0  0  0  0
   10.0417   -2.6292    0.0000 O   0  0  0  0  0  0  0  0  0  0  0  0
   11.7542   -2.3042    0.0000 O   0  0  0  0  0  0  0  0  0  0  0  0
    0.6000   -2.6292    0.0000 C   0  0  0  0  0  0  0  0  0  0  0  0
    4.1792   -3.0542    0.0000 C   0  0  0  0  0  0  0  0  0  0  0  0
    6.8667   -3.1625    0.0000 C   0  0  0  0  0  0  0  0  0  0  0  0
    6.7417    0.9833    0.0000 C   0  0  0  0  0  0  0  0  0  0  0  0
    7.6625    0.9708    0.0000 C   0  0  0  0  0  0  0  0  0  0  0  0
   -0.1125   -3.0417    0.0000 C   0  0  0  0  0  0  0  0  0  0  0  0
   -0.1125   -3.8667    0.0000 C   0  0  0  0  0  0  0  0  0  0  0  0
    7.6917   -2.7917    0.0000 C   0  0  0  0  0  0  0  0  0  0  0  0
    6.7542   -4.0667    0.0000 C   0  0  0  0  0  0  0  0  0  0  0  0
    7.4875   -4.6125    0.0000 C   0  0  0  0  0  0  0  0  0  0  0  0
    8.4292   -3.3375    0.0000 C   0  0  0  0  0  0  0  0  0  0  0  0
    8.3292   -4.2500    0.0000 C   0  0  0  0  0  0  0  0  0  0  0  0
  2  1  1  0
  3  1  1  0
  4  3  1  0
  5 13  2  0
  6  2  1  0
  7  9  1  0
  8  2  1  0
  9 11  1  0
 10 18  1  0
 11  1  1  0
 12  5  1  0
 13 15  1  0
 14  5  1  0
 15 21  1  1
 16  4  1  0
 17 25  1  0
 18 14  2  0
 20 19  1  0
 21 16  1  0
 12 22  1  6
 23 10  2  0
 24 28  1  0
 25 15  1  0
 26 19  1  0
 27 20  1  0
 28 18  1  0
  8 29  1  6
 30  7  2  0
  1 31  1  6
 32  6  2  0
 33 21  2  0
 34 27  2  0
 35 26  2  0
 20 36  1  1
 19 37  1  6
 38  9  1  0
  4 39  1  1
 40 26  1  0
 41 27  1  0
 42 14  1  0
 43 17  1  0
 44 29  1  0
 45 11  1  0
 46 45  1  0
 47 42  2  0
 48 28  2  0
 49 44  2  0
 50 44  1  0
 51 50  2  0
 52 49  1  0
 53 51  1  0
  8  7  1  0
  6  4  1  0
 46 38  1  0
 17 12  1  0
 53 52  2  0
 22 10  1  0
 47 48  1  0
 23 24  1  0
M  END
>  <ID>  (1166) 


>  <MOLENAME>  (1166) 
ERGOTAMINE TARTRATE

>  <therap>  (1166) 
analgesic, antimigraine

>  <ref>  (1166) 
Headache 22:167 (1982); Clin Pharmacokinet10:334 (1985); Teratology 51:344 (1995)

>  <cas#>  (1166) 
379-79-3

>  <source>  (1166) 
Claviceps purpurea

>  <status>  (1166) 
USP, INN, BAN, JAN

>  <tradename>  (1166) 
ERGOSTAT

>  <SMILES>  (1166) 
CN1C[C@H](C(=O)N[C@]2(C)O[C@@]3(O)C4CCCN4C(=O)[C@H](Cc4ccccc4)N3C2=O)C=C2c3c4c(c[nH]c4ccc3)C[C@H]21

>  <standardized_failed>  (1166) 
False

$$$$

     RDKit          2D

 11 12  0  0  0  0  0  0  0  0999 V2000
    3.5250   -4.0667    0.0000 N   0  0  0  0  0  0  0  0  0  0  0  0
    4.0042   -3.4000    0.0000 C   0  0  0  0  0  0  0  0  0  0  0  0
    2.7375   -3.8167    0.0000 C   0  0  0  0  0  0  0  0  0  0  0  0
    3.5167   -2.7292    0.0000 O   0  0  0  0  0  0  0  0  0  0  0  0
    2.7292   -2.9917    0.0000 C   0  0  0  0  0  0  0  0  0  0  0  0
    2.0167   -4.2375    0.0000 C   0  0  0  0  0  0  0  0  0  0  0  0
    4.8292   -3.4000    0.0000 N   0  0  0  0  0  0  0  0  0  0  0  0
    2.0167   -2.5792    0.0000 C   0  0  0  0  0  0  0  0  0  0  0  0
    1.3042   -3.8250    0.0000 C   0  0  0  0  0  0  0  0  0  0  0  0
    1.3042   -3.0000    0.0000 C   0  0  0  0  0  0  0  0  0  0  0  0
    0.5875   -4.2375    0.0000 Cl  0  0  0  0  0  0  0  0  0  0  0  0
  2  1  2  0
  3  1  1  0
  4  2  1  0
  5  3  2  0
  6  3  1  0
  7  2  1  0
  8  5  1  0
  9  6  2  0
 10  9  1  0
 11  9  1  0
  5  4  1  0
 10  8  2  0
M  END
>  <ID>  (1167) 


>  <MOLENAME>  (1167) 
ZOXAZOLAMINE

>  <therap>  (1167) 
muscle relaxant, antirrheumatic

>  <ref>  (1167) 
Drug Metab Dispos 14:331 (1986)

>  <cas#>  (1167) 
61-80-3

>  <source>  (1167) 
synthetic; McN-485

>  <status>  (1167) 
NF-XI, INN, BAN

>  <tradename>  (1167) 
FLEXIN

>  <SMILES>  (1167) 
Nc1nc2c(ccc(Cl)c2)o1

>  <standardized_failed>  (1167) 
False

$$$$

     RDKit          2D

 24 25  0  0  0  0  0  0  0  0999 V2000
    3.8875    0.0083    0.0000 S   0  0  0  0  0  0  0  0  0  0  0  0
    4.6000    0.4250    0.0000 N   0  0  0  0  0  0  0  0  0  0  0  0
    3.1667    0.4208    0.0000 C   0  0  0  0  0  0  0  0  0  0  0  0
    5.3167    0.0125    0.0000 C   0  0  0  0  0  0  0  0  0  0  0  0
    2.4542    0.0083    0.0000 C   0  0  0  0  0  0  0  0  0  0  0  0
    2.4542   -0.8167    0.0000 N   0  0  0  0  0  0  0  0  0  0  0  0
    3.3625   -0.5292    0.0000 O   0  0  0  0  0  0  0  0  0  0  0  0
    4.4667   -0.5750    0.0000 O   0  0  0  0  0  0  0  0  0  0  0  0
    6.0292    0.4250    0.0000 N   0  0  0  0  0  0  0  0  0  0  0  0
    5.3167   -0.8125    0.0000 O   0  0  0  0  0  0  0  0  0  0  0  0
    1.7417   -1.2292    0.0000 C   0  0  0  0  0  0  0  0  0  0  0  0
    2.4542    1.6625    0.0000 N   0  0  0  0  0  0  0  0  0  0  0  0
    3.1667    1.2500    0.0000 C   0  0  0  0  0  0  0  0  0  0  0  0
    1.7417    0.4208    0.0000 C   0  0  0  0  0  0  0  0  0  0  0  0
    1.7417   -2.0500    0.0000 C   0  0  0  0  0  0  0  0  0  0  0  0
    1.0292   -2.4625    0.0000 C   0  0  0  0  0  0  0  0  0  0  0  0
    1.7417    1.2500    0.0000 C   0  0  0  0  0  0  0  0  0  0  0  0
    6.7417    0.0125    0.0000 C   0  0  0  0  0  0  0  0  0  0  0  0
    0.3167   -1.2250    0.0000 C   0  0  0  0  0  0  0  0  0  0  0  0
    1.0292   -0.8125    0.0000 C   0  0  0  0  0  0  0  0  0  0  0  0
    0.3167   -2.0500    0.0000 C   0  0  0  0  0  0  0  0  0  0  0  0
    1.0375   -3.2875    0.0000 C   0  0  0  0  0  0  0  0  0  0  0  0
    6.7417   -0.8125    0.0000 C   0  0  0  0  0  0  0  0  0  0  0  0
    7.4542    0.4333    0.0000 C   0  0  0  0  0  0  0  0  0  0  0  0
  2  1  1  0
  3  1  1  0
  4  2  1  0
  5  3  2  0
  6  5  1  0
  7  1  2  0
  8  1  2  0
  9  4  1  0
 10  4  2  0
 11  6  1  0
 12 13  2  0
 13  3  1  0
 14  5  1  0
 15 11  2  0
 16 15  1  0
 17 12  1  0
 18  9  1  0
 19 20  2  0
 20 11  1  0
 21 19  1  0
 22 16  1  0
 23 18  1  0
 24 18  1  0
 17 14  2  0
 21 16  2  0
M  END
>  <ID>  (1168) 


>  <MOLENAME>  (1168) 
TORSEMIDE

>  <therap>  (1168) 
diuretic, inhibits Na/K/2Cl carrier system

>  <ref>  (1168) 
Drugs 49:121 (1955); Mayo Clinic Proc 72 :930 (1997)

>  <cas#>  (1168) 
56211-40-6

>  <source>  (1168) 
synthetic

>  <status>  (1168) 
USP, INN, BAN

>  <tradename>  (1168) 
DEMADEX

>  <SMILES>  (1168) 
Cc1cccc(Nc2c(S(=O)(=O)NC(=O)NC(C)C)cncc2)c1

>  <standardized_failed>  (1168) 
False

$$$$

     RDKit          2D

 23 24  0  0  0  0  0  0  0  0999 V2000
    5.2792   -1.4792    0.0000 C   0  0  0  0  0  0  0  0  0  0  0  0
    3.9042   -2.2625    0.0000 C   0  0  0  0  0  0  0  0  0  0  0  0
    4.8625   -0.8167    0.0000 C   0  0  0  0  0  0  0  0  0  0  0  0
    3.9042   -3.0542    0.0000 C   0  0  0  0  0  0  0  0  0  0  0  0
    6.0875   -1.2792    0.0000 O   0  0  0  0  0  0  0  0  0  0  0  0
    4.6042   -1.8667    0.0000 O   0  0  0  0  0  0  0  0  0  0  0  0
    3.2042   -3.4542    0.0000 C   0  0  0  0  0  0  0  0  0  0  0  0
    3.2042   -1.8667    0.0000 O   0  0  0  0  0  0  0  0  0  0  0  0
    5.3917   -0.2000    0.0000 C   0  0  0  0  0  0  0  0  0  0  0  0
    2.5042   -3.0542    0.0000 C   0  0  0  0  0  0  0  0  0  0  0  0
    6.1417   -0.4917    0.0000 C   0  0  0  0  0  0  0  0  0  0  0  0
    2.5042   -2.2625    0.0000 C   0  0  0  0  0  0  0  0  0  0  0  0
    5.2542   -2.3542    0.0000 C   0  0  0  0  0  0  0  0  0  0  0  0
    4.0542   -0.7542    0.0000 O   0  0  0  0  0  0  0  0  0  0  0  0
    4.6042   -3.4542    0.0000 O   0  0  0  0  0  0  0  0  0  0  0  0
    1.8042   -3.4542    0.0000 Cl  0  0  0  0  0  0  0  0  0  0  0  0
    3.2042   -4.2542    0.0000 O   0  0  0  0  0  0  0  0  0  0  0  0
    5.1917    0.5708    0.0000 O   0  0  0  0  0  0  0  0  0  0  0  0
    6.8292   -0.0625    0.0000 C   0  0  0  0  0  0  0  0  0  0  0  0
    1.8042   -1.8667    0.0000 C   0  0  0  0  0  0  0  0  0  0  0  0
    6.0417   -2.3542    0.0000 Cl  0  0  0  0  0  0  0  0  0  0  0  0
    6.8042    0.6833    0.0000 Cl  0  0  0  0  0  0  0  0  0  0  0  0
    1.0917   -1.8375    0.0000 O   0  0  0  0  0  0  0  0  0  0  0  0
  2  6  1  6
  3  1  1  0
  4  2  1  0
  5  1  1  0
  1  6  1  0
  7  4  1  0
  8  2  1  0
  9  3  1  0
 10 12  1  0
 11  5  1  0
 12  8  1  0
  1 13  1  6
  3 14  1  1
  4 15  1  6
 10 16  1  1
  7 17  1  1
  9 18  1  6
 11 19  1  1
 12 20  1  1
 21 13  1  0
 22 19  1  0
 23 20  1  0
  9 11  1  0
 10  7  1  0
M  END
>  <ID>  (1169) 


>  <MOLENAME>  (1169) 
SUCRALOSE

>  <therap>  (1169) 
sweetener

>  <ref>  (1169) 
Arch Oral Biol 27:693 (1982); Trends Biochem Sci 3:61 (1978)

>  <cas#>  (1169) 
56038-13-2

>  <source>  (1169) 
semisynthetic; E-955

>  <status>  (1169) 
NF, BAN

>  <tradename>  (1169) 
SPLENDA

>  <SMILES>  (1169) 
OC[C@H]1O[C@H](O[C@]2(CCl)O[C@H](CCl)[C@@H](O)[C@@H]2O)[C@H](O)[C@@H](O)[C@H]1Cl

>  <standardized_failed>  (1169) 
False

$$$$

     RDKit          2D

  6  6  0  0  0  0  0  0  0  0999 V2000
    3.7375   -0.5833    0.0000 N   0  0  0  0  0  0  0  0  0  0  0  0
    3.4792   -1.3708    0.0000 N   0  0  0  0  0  0  0  0  0  0  0  0
    2.4042   -0.5833    0.0000 C   0  0  0  0  0  0  0  0  0  0  0  0
    2.6542   -1.3708    0.0000 C   0  0  0  0  0  0  0  0  0  0  0  0
    3.0667   -0.0958    0.0000 C   0  0  0  0  0  0  0  0  0  0  0  0
    1.6208   -0.3292    0.0000 C   0  0  0  0  0  0  0  0  0  0  0  0
  2  1  1  0
  3  5  1  0
  4  2  1  0
  5  1  2  0
  6  3  1  0
  4  3  2  0
M  END
>  <ID>  (1170) 


>  <MOLENAME>  (1170) 
FOMEPIZOLE

>  <therap>  (1170) 
alcohol dehydrogenase inhibitor, antidote

>  <ref>  (1170) 
J Toxicol Clin Exper 7:373 (1987); Alcohol Clin Exper Res 12:516 (1988)

>  <cas#>  (1170) 
7554-65-6

>  <source>  (1170) 
synthetic; 4MP

>  <status>  (1170) 
USAN, INN, BAN

>  <tradename>  (1170) 
ANTIZOL

>  <SMILES>  (1170) 
Cc1c[nH]nc1

>  <standardized_failed>  (1170) 
False

$$$$

     RDKit          2D

 13 13  0  0  0  0  0  0  0  0999 V2000
    6.8250   -2.7667    0.0000 As  0  0  0  0  0  5  0  0  0  0  0  0
    3.9667   -4.4250    0.0000 N   0  0  0  0  0  0  0  0  0  0  0  0
    6.1125   -3.1833    0.0000 C   0  0  0  0  0  0  0  0  0  0  0  0
    4.6833   -4.0125    0.0000 C   0  0  0  0  0  0  0  0  0  0  0  0
    3.2500   -4.0125    0.0000 O   0  0  0  0  0  0  0  0  0  0  0  0
    6.4042   -2.0500    0.0000 O   0  0  0  0  0  0  0  0  0  0  0  0
    3.9667   -5.2500    0.0000 O   0  0  0  0  0  0  0  0  0  0  0  0
    7.5375   -2.3500    0.0000 O   0  0  0  0  0  0  0  0  0  0  0  0
    7.0375   -3.5625    0.0000 O   0  0  0  0  0  0  0  0  0  0  0  0
    5.3958   -2.7708    0.0000 C   0  0  0  0  0  0  0  0  0  0  0  0
    6.1125   -4.0125    0.0000 C   0  0  0  0  0  0  0  0  0  0  0  0
    4.6833   -3.1875    0.0000 C   0  0  0  0  0  0  0  0  0  0  0  0
    5.3958   -4.4250    0.0000 C   0  0  0  0  0  0  0  0  0  0  0  0
  2  4  1  0
  3  1  1  0
  4 12  2  0
  5  2  1  0
  6  1  2  0
  7  2  2  0
  8  1  1  0
  9  1  1  0
 10  3  2  0
 11  3  1  0
 12 10  1  0
 13 11  2  0
 13  4  1  0
M  CHG  2   2   1   5  -1
M  END
>  <ID>  (1171) 


>  <MOLENAME>  (1171) 
NITARSONE

>  <therap>  (1171) 
antiprotozoal

>  <ref>  (1171) 
World Poultry 19:1 (2003); J Appl Poult Res 18:766 (2009)

>  <cas#>  (1171) 
98-72-6

>  <source>  (1171) 
synthetic; NSC-5085

>  <status>  (1171) 
USAN, INN

>  <tradename>  (1171) 
HISTOSTAT

>  <SMILES>  (1171) 
O=[N+]([O-])c1ccc([As](=O)(O)O)cc1

>  <standardized_failed>  (1171) 
False

$$$$

     RDKit          2D

 11 10  0  0  0  0  0  0  0  0999 V2000
    6.4417   -6.0542    0.0000 C   0  0  0  0  0  0  0  0  0  0  0  0
    7.1542   -5.6417    0.0000 O   0  0  0  0  0  0  0  0  0  0  0  0
    6.4417   -6.8792    0.0000 O   0  0  0  0  0  0  0  0  0  0  0  0
    5.7292   -5.6542    0.0000 C   0  0  0  0  0  0  0  0  0  0  0  0
    5.0167   -6.0667    0.0000 C   0  0  0  0  0  0  0  0  0  0  0  0
    8.3667   -6.1917    0.0000 Na  0  0  0  0  0 15  0  0  0  0  0  0
    4.3000   -5.6542    0.0000 C   0  0  0  0  0  0  0  0  0  0  0  0
    5.0167   -6.8917    0.0000 C   0  0  0  0  0  0  0  0  0  0  0  0
    3.5875   -6.0667    0.0000 C   0  0  0  0  0  0  0  0  0  0  0  0
    4.3000   -7.3042    0.0000 C   0  0  0  0  0  0  0  0  0  0  0  0
    3.5875   -6.8917    0.0000 C   0  0  0  0  0  0  0  0  0  0  0  0
  2  1  1  0
  3  1  2  0
  4  1  1  0
  5  4  1  0
  7  5  2  0
  8  5  1  0
  9  7  1  0
 10  8  2  0
 11  9  2  0
 11 10  1  0
M  CHG  2   2  -1   6   1
M  END
>  <ID>  (1172) 


>  <MOLENAME>  (1172) 
SODIUM PHENYLACETATE

>  <therap>  (1172) 
antihyperammonemic

>  <ref>  (1172) 
In Vitro Cell Dev Biol 29A:189 (1995); Blood Cells Molecules Diseases 23:27 (1997); Biol Pharm Bull 25:1244 (2002)

>  <cas#>  (1172) 
114-70-5

>  <source>  (1172) 
synthetic

>  <status>  (1172) 
USAN

>  <tradename>  (1172) 
AMMONUL

>  <SMILES>  (1172) 
O=C([O-])Cc1ccccc1.[Na+]

>  <standardized_failed>  (1172) 
False

$$$$

     RDKit          2D

 16 13  0  0  0  0  0  0  0  0999 V2000
   -0.0625   -2.9292    0.0000 S   0  0  0  0  0  0  0  0  0  0  0  0
    4.9250   -2.5167    0.0000 S   0  0  0  0  0  0  0  0  0  0  0  0
    4.2125   -2.9292    0.0000 C   0  0  0  0  0  0  0  0  0  0  0  0
    0.6500   -2.5167    0.0000 C   0  0  0  0  0  0  0  0  0  0  0  0
    5.6375   -2.9292    0.0000 O   0  0  0  0  0  0  0  0  0  0  0  0
   -0.7792   -2.5208    0.0000 O   0  0  0  0  0  0  0  0  0  0  0  0
   -0.0625   -3.7542    0.0000 O   0  0  0  0  0  0  0  0  0  0  0  0
   -0.7833   -3.3417    0.0000 O   0  0  0  0  0  0  0  0  0  0  0  0
    4.3375   -1.9292    0.0000 O   0  0  0  0  0  0  0  0  0  0  0  0
    5.5042   -1.9292    0.0000 O   0  0  0  0  0  0  0  0  0  0  0  0
    1.3625   -2.9292    0.0000 C   0  0  0  0  0  0  0  0  0  0  0  0
    3.5000   -2.5167    0.0000 C   0  0  0  0  0  0  0  0  0  0  0  0
    2.7875   -2.9292    0.0000 S   0  0  0  0  0  0  0  0  0  0  0  0
    2.0708   -2.5167    0.0000 S   0  0  0  0  0  0  0  0  0  0  0  0
   -1.8750   -1.8667    0.0000 Na  0  0  0  0  0 15  0  0  0  0  0  0
    6.6792   -2.7167    0.0000 Na  0  0  0  0  0 15  0  0  0  0  0  0
  2  3  1  0
  3 12  1  0
  4  1  1  0
  5  2  1  0
  6  1  1  0
  7  1  2  0
  8  1  2  0
  9  2  2  0
 10  2  2  0
 11  4  1  0
 12 13  1  0
 13 14  1  0
 14 11  1  0
M  CHG  4   5  -1   6  -1  15   1  16   1
M  END
>  <ID>  (1173) 


>  <MOLENAME>  (1173) 
DIMESNA

>  <therap>  (1173) 
antineoplastic, uroprotectant

>  <ref>  (1173) 
IDrugs (2004), 7(1), 64-69; Cancer Chemother. Pharmacol. (2003), 52(Suppl. 1), S3-S15; Anticancer Res. (1991), 11(2), 773-6.

>  <cas#>  (1173) 
16208-51-8

>  <source>  (1173) 
synthetic

>  <status>  (1173) 
INN

>  <tradename>  (1173) 
nan

>  <SMILES>  (1173) 
O=S(=O)(O)CCSSCCS(=O)(=O)O

>  <standardized_failed>  (1173) 
False

$$$$

     RDKit          2D

 23 25  0  0  0  0  0  0  0  0999 V2000
    4.8417   -5.4667    0.0000 S   0  0  0  0  0  0  0  0  0  0  0  0
    5.5542   -5.8792    0.0000 N   0  0  0  0  0  0  0  0  0  0  0  0
    5.5542   -6.7042    0.0000 C   0  0  0  0  0  0  0  0  0  0  0  0
    4.8417   -7.1167    0.0000 C   0  0  0  0  0  0  0  0  0  0  0  0
    6.2792   -7.1292    0.0000 C   0  0  0  0  0  0  0  0  0  0  0  0
    4.1292   -5.8792    0.0000 C   0  0  0  0  0  0  0  0  0  0  0  0
    4.1292   -6.7042    0.0000 C   0  0  0  0  0  0  0  0  0  0  0  0
    6.9875   -8.3667    0.0000 C   0  0  0  0  0  0  0  0  0  0  0  0
    6.2750   -7.9542    0.0000 N   0  0  0  0  0  0  0  0  0  0  0  0
    7.1625   -9.1792    0.0000 N   0  0  0  0  0  0  0  0  0  0  0  0
    7.7042   -7.9542    0.0000 C   0  0  0  0  0  0  0  0  0  0  0  0
    5.2750   -4.7667    0.0000 O   0  0  0  0  0  0  0  0  0  0  0  0
    4.5542   -4.6917    0.0000 O   0  0  0  0  0  0  0  0  0  0  0  0
    7.9792   -9.2625    0.0000 O   0  0  0  0  0  0  0  0  0  0  0  0
    8.3167   -8.5167    0.0000 C   0  0  0  0  0  0  0  0  0  0  0  0
    6.9917   -6.7167    0.0000 O   0  0  0  0  0  0  0  0  0  0  0  0
    4.8417   -7.9417    0.0000 O   0  0  0  0  0  0  0  0  0  0  0  0
    6.2792   -5.4667    0.0000 C   0  0  0  0  0  0  0  0  0  0  0  0
    3.4167   -7.1167    0.0000 C   0  0  0  0  0  0  0  0  0  0  0  0
    3.4167   -5.4667    0.0000 C   0  0  0  0  0  0  0  0  0  0  0  0
    9.1375   -8.3625    0.0000 C   0  0  0  0  0  0  0  0  0  0  0  0
    2.7000   -6.7042    0.0000 C   0  0  0  0  0  0  0  0  0  0  0  0
    2.7000   -5.8792    0.0000 C   0  0  0  0  0  0  0  0  0  0  0  0
  2  1  1  0
  3  2  1  0
  4  7  1  0
  5  3  1  0
  6  1  1  0
  7  6  2  0
  8  9  1  0
  9  5  1  0
 10  8  2  0
 11  8  1  0
 12  1  2  0
 13  1  2  0
 14 10  1  0
 15 11  2  0
 16  5  2  0
 17  4  1  0
 18  2  1  0
 19  7  1  0
 20  6  1  0
 21 15  1  0
 22 23  1  0
 23 20  2  0
  3  4  2  0
 19 22  2  0
 14 15  1  0
M  END
>  <ID>  (1174) 


>  <MOLENAME>  (1174) 
ISOXICAM

>  <therap>  (1174) 
antiinflammatory

>  <ref>  (1174) 
Am. J. Med. (1985), 79(4B), 12-6; Agents Actions (1976), 6(6), 748-54; Agents Actions (1975), 5(3), 256-63

>  <cas#>  (1174) 
34552-84-6

>  <source>  (1174) 
synthetic; W-8495

>  <status>  (1174) 
USAN, INN, BAN

>  <tradename>  (1174) 
MAXICAM

>  <SMILES>  (1174) 
Cc1cc(NC(=O)C2=C(O)c3c(cccc3)S(=O)(=O)N2C)no1

>  <standardized_failed>  (1174) 
False

$$$$

     RDKit          2D

 12 11  0  0  0  0  0  0  0  0999 V2000
    6.0875   -1.8125    0.0000 C   0  0  0  0  0  0  0  0  0  0  0  0
    5.3375   -1.8125    0.0000 C   0  0  0  0  0  0  0  0  0  0  0  0
    6.4625   -2.4625    0.0000 C   0  0  0  0  0  0  0  0  0  0  0  0
    7.2125   -2.4625    0.0000 N   0  0  0  0  0  0  0  0  0  0  0  0
    6.4625   -1.1667    0.0000 O   0  0  0  0  0  0  0  0  0  0  0  0
    4.9625   -1.1625    0.0000 C   0  0  0  0  0  0  0  0  0  0  0  0
    4.9625   -2.4625    0.0000 C   0  0  0  0  0  0  0  0  0  0  0  0
    6.0875   -3.1125    0.0000 C   0  0  0  0  0  0  0  0  0  0  0  0
    4.2125   -2.4625    0.0000 C   0  0  0  0  0  0  0  0  0  0  0  0
    4.2125   -1.1625    0.0000 C   0  0  0  0  0  0  0  0  0  0  0  0
    3.8375   -1.8125    0.0000 C   0  0  0  0  0  0  0  0  0  0  0  0
    8.3000   -2.2042    0.0000 Cl  0  0  0  0  0  0  0  0  0  0  0  0
  2  1  1  0
  3  1  1  0
  3  4  1  0
  1  5  1  6
  6  2  2  0
  7  2  1  0
  3  8  1  6
  9  7  2  0
 10  6  1  0
 11 10  2  0
  9 11  1  0
M  END
>  <ID>  (1175) 


>  <MOLENAME>  (1175) 
1S.2R-PHENYLPROPANOLAMINE HYDROCHLORIDE

>  <therap>  (1175) 
vasoconstrictor, decongestant, anorexic

>  <ref>  (1175) 
Toxicol Appl Pharmacol 18:185 (1971); Anal Profiles Drug Subs 12:357 (1983)

>  <cas#>  (1175) 
154-41-6

>  <source>  (1175) 
synthetic; D-(+)-norephedrine

>  <status>  (1175) 
USP, INN, BAN

>  <tradename>  (1175) 
nan

>  <SMILES>  (1175) 
C[C@@H](N)[C@@H](O)c1ccccc1

>  <standardized_failed>  (1175) 
False

$$$$

     RDKit          2D

 13 12  0  0  0  0  0  0  0  0999 V2000
    6.5875   -4.6875    0.0000 C   0  0  0  0  0  0  0  0  0  0  0  0
    5.7625   -4.6875    0.0000 C   0  0  0  0  0  0  0  0  0  0  0  0
    7.0000   -5.4000    0.0000 C   0  0  0  0  0  0  0  0  0  0  0  0
    7.8292   -5.4000    0.0000 N   0  0  0  0  0  0  0  0  0  0  0  0
    7.0000   -3.9667    0.0000 O   0  0  0  0  0  0  0  0  0  0  0  0
    9.2000   -5.7792    0.0000 Cl  0  0  0  0  0  0  0  0  0  0  0  0
    5.3500   -5.4042    0.0000 C   0  0  0  0  0  0  0  0  0  0  0  0
    5.3500   -3.9750    0.0000 C   0  0  0  0  0  0  0  0  0  0  0  0
    8.2417   -4.6875    0.0000 C   0  0  0  0  0  0  0  0  0  0  0  0
    6.5875   -6.1167    0.0000 C   0  0  0  0  0  0  0  0  0  0  0  0
    4.5167   -5.4042    0.0000 C   0  0  0  0  0  0  0  0  0  0  0  0
    4.5167   -3.9750    0.0000 C   0  0  0  0  0  0  0  0  0  0  0  0
    4.1042   -4.6875    0.0000 C   0  0  0  0  0  0  0  0  0  0  0  0
  2  1  1  0
  3  1  1  0
  4  3  1  0
  5  1  1  0
  7  2  2  0
  8  2  1  0
  9  4  1  0
 10  3  1  0
 11  7  1  0
 12  8  2  0
 13 11  2  0
 12 13  1  0
M  END
>  <ID>  (1176) 


>  <MOLENAME>  (1176) 
RACEPHEDRINE HYDROCHLORIDE

>  <therap>  (1176) 
bronchodilator, decongestant

>  <ref>  (1176) 
J Dis Child 94:80 (1957); Public Health 9:114 (2001); Rev Panam Salud Publica 9:114 (2001)

>  <cas#>  (1176) 
134-71-4, 90-81-3 [racephedrine]

>  <source>  (1176) 
synthetic

>  <status>  (1176) 
USAN, INN, BAN

>  <tradename>  (1176) 
nan

>  <SMILES>  (1176) 
CNC(C)C(O)c1ccccc1

>  <standardized_failed>  (1176) 
False

$$$$

     RDKit          2D

 18 18  0  0  0  0  0  0  0  0999 V2000
    5.4833   -3.9250    0.0000 S   0  0  0  0  0  0  0  0  0  0  0  0
    5.4792   -3.1000    0.0000 C   0  0  0  0  0  0  0  0  0  0  0  0
    6.1917   -2.6875    0.0000 C   0  0  0  0  0  0  0  0  0  0  0  0
    6.1917   -1.8625    0.0000 C   0  0  0  0  0  0  0  0  0  0  0  0
    6.2792   -4.1333    0.0000 O   0  0  0  0  0  0  0  0  0  0  0  0
    4.7667   -2.6875    0.0000 C   0  0  0  0  0  0  0  0  0  0  0  0
    5.2667   -4.7208    0.0000 O   0  0  0  0  0  0  0  0  0  0  0  0
    4.6583   -3.9208    0.0000 O   0  0  0  0  0  0  0  0  0  0  0  0
    6.9042   -1.4458    0.0000 N   0  0  0  0  0  0  0  0  0  0  0  0
    5.4792   -1.4500    0.0000 C   0  0  0  0  0  0  0  0  0  0  0  0
    4.7667   -1.8625    0.0000 C   0  0  0  0  0  0  0  0  0  0  0  0
    6.9042   -3.1000    0.0000 C   0  0  0  0  0  0  0  0  0  0  0  0
    5.4833   -0.6250    0.0000 O   0  0  0  0  0  0  0  0  0  0  0  0
    8.1500   -4.2750    0.0000 Na  0  0  0  0  0 15  0  0  0  0  0  0
    7.6208   -1.8583    0.0000 C   0  0  0  0  0  0  0  0  0  0  0  0
    6.1958   -0.2125    0.0000 C   0  0  0  0  0  0  0  0  0  0  0  0
    7.6208   -2.6875    0.0000 C   0  0  0  0  0  0  0  0  0  0  0  0
    6.2000    0.6125    0.0000 C   0  0  0  0  0  0  0  0  0  0  0  0
  2  1  1  0
  3  2  2  0
  4  3  1  0
  5  1  1  0
  6  2  1  0
  7  1  2  0
  8  1  2  0
  9  4  1  0
 10  4  2  0
 11  6  2  0
 12  3  1  0
 13 10  1  0
 15  9  2  0
 16 13  1  0
 17 12  2  0
 18 16  1  0
 11 10  1  0
 15 17  1  0
M  CHG  2   5  -1  14   1
M  END
>  <ID>  (1177) 


>  <MOLENAME>  (1177) 
ACTINOQUINOL SODIUM

>  <therap>  (1177) 
ultaviolet screen

>  <ref>  (1177) 
nan

>  <cas#>  (1177) 
7246-07-3

>  <source>  (1177) 
synthetic

>  <status>  (1177) 
USAN, INN

>  <tradename>  (1177) 
nan

>  <SMILES>  (1177) 
CCOc1c2ncccc2c(S(=O)(=O)O)cc1

>  <standardized_failed>  (1177) 
False

$$$$

     RDKit          2D

 13 12  0  0  0  0  0  0  0  0999 V2000
    2.4042   -0.1042    0.0000 C   0  0  0  0  0  0  0  0  0  0  0  0
    1.6542   -0.1042    0.0000 C   0  0  0  0  0  0  0  0  0  0  0  0
    2.7792   -0.7417    0.0000 C   0  0  0  0  0  0  0  0  0  0  0  0
    3.5292   -0.7417    0.0000 N   0  0  0  0  0  0  0  0  0  0  0  0
    2.7792    0.5458    0.0000 O   0  0  0  0  0  0  0  0  0  0  0  0
    5.4542   -0.4417    0.0000 Cl  0  0  0  0  0  0  0  0  0  0  0  0
    1.2792   -0.7542    0.0000 C   0  0  0  0  0  0  0  0  0  0  0  0
    1.2792    0.5458    0.0000 C   0  0  0  0  0  0  0  0  0  0  0  0
    3.9042   -0.1042    0.0000 C   0  0  0  0  0  0  0  0  0  0  0  0
    2.4042   -1.3917    0.0000 C   0  0  0  0  0  0  0  0  0  0  0  0
    0.5292   -0.7542    0.0000 C   0  0  0  0  0  0  0  0  0  0  0  0
    0.5292    0.5458    0.0000 C   0  0  0  0  0  0  0  0  0  0  0  0
    0.1542   -0.1042    0.0000 C   0  0  0  0  0  0  0  0  0  0  0  0
  2  1  1  0
  3  1  1  0
  4  3  1  0
  1  5  1  1
  7  2  2  0
  8  2  1  0
  9  4  1  0
 10  3  1  0
 11  7  1  0
 12  8  2  0
 13 11  2  0
 12 13  1  0
M  END
>  <ID>  (1178) 


>  <MOLENAME>  (1178) 
EPHEDRINE (1R.2S) HYDROCHLORIDE

>  <therap>  (1178) 
bronchodilator, cardiac stimulant

>  <ref>  (1178) 
Br J Clin Pharmacol 6:221 (1978); Clin Toxicol 41:849 (2003); Brain Res 1069:96 (2006)

>  <cas#>  (1178) 
50-98-6, 299-42-3 [(-)-ephedrine]

>  <source>  (1178) 
many Ephedra spp

>  <status>  (1178) 
USAN, INN, BAN, JAN

>  <tradename>  (1178) 
nan

>  <SMILES>  (1178) 
CNC(C)[C@H](O)c1ccccc1

>  <standardized_failed>  (1178) 
False

$$$$

     RDKit          2D

  8  7  0  0  0  0  0  0  0  0999 V2000
   -0.3000   -0.6792    0.0000 N   0  0  0  0  0  0  0  0  0  0  0  0
    1.8042   -1.2792    0.0000 Cl  0  0  0  0  0  0  0  0  0  0  0  0
    0.3500    1.1958    0.0000 Cl  0  0  0  0  0  0  0  0  0  0  0  0
   -0.3000    0.0708    0.0000 C   0  0  0  0  0  0  0  0  0  0  0  0
    0.3500   -1.0542    0.0000 C   0  0  0  0  0  0  0  0  0  0  0  0
   -0.9458   -1.0542    0.0000 C   0  0  0  0  0  0  0  0  0  0  0  0
    0.3500    0.4458    0.0000 C   0  0  0  0  0  0  0  0  0  0  0  0
    1.0000   -0.6792    0.0000 C   0  0  0  0  0  0  0  0  0  0  0  0
  2  8  1  0
  3  7  1  0
  4  1  1  0
  5  1  1  0
  6  1  1  0
  7  4  1  0
  8  5  1  0
M  END
>  <ID>  (1179) 


>  <MOLENAME>  (1179) 
MECHLORETHAMINE

>  <therap>  (1179) 
antineoplastic, alkylating agent

>  <ref>  (1179) 
Adv. Hematol. (2011), e-pub 865870, 17 pp; Nat. Clin. Pract. Oncol. (2008), 5(9), 543-56; Cancer (1949), 2(1), 1-17

>  <cas#>  (1179) 
55-86-7, 51-75-2 [mechlorethamine]

>  <source>  (1179) 
synthetic; NSC-762

>  <status>  (1179) 
USP, INN, BAN, JAN

>  <tradename>  (1179) 
MUSTARDGEN

>  <SMILES>  (1179) 
CN(CCCl)CCCl

>  <standardized_failed>  (1179) 
False

$$$$

     RDKit          2D

 22 22  0  0  0  0  0  0  0  0999 V2000
    2.4583   -4.8625    0.0000 C   0  0  0  0  0  0  0  0  0  0  0  0
    4.6000   -3.6167    0.0000 C   0  0  0  0  0  0  0  0  0  0  0  0
    2.4583   -5.6875    0.0000 N   0  0  0  0  0  0  0  0  0  0  0  0
    1.7458   -4.4500    0.0000 C   0  0  0  0  0  0  0  0  0  0  0  0
    5.3125   -3.2042    0.0000 C   0  0  0  0  0  0  0  0  0  0  0  0
    3.8875   -3.2042    0.0000 C   0  0  0  0  0  0  0  0  0  0  0  0
    4.6000   -4.4417    0.0000 C   0  0  0  0  0  0  0  0  0  0  0  0
    1.7458   -3.6250    0.0000 C   0  0  0  0  0  0  0  0  0  0  0  0
    3.1750   -3.6208    0.0000 C   0  0  0  0  0  0  0  0  0  0  0  0
    4.5917   -5.2625    0.0000 N   0  0  0  0  0  0  0  0  0  0  0  0
    3.1750   -4.4500    0.0000 C   0  0  0  0  0  0  0  0  0  0  0  0
    1.7458   -6.1042    0.0000 O   0  0  0  0  0  0  0  0  0  0  0  0
    6.0250   -3.6125    0.0000 N   0  0  0  0  0  0  0  0  0  0  0  0
    3.1750   -6.1042    0.0000 O   0  0  0  0  0  0  0  0  0  0  0  0
    2.4583   -3.2083    0.0000 C   0  0  0  0  0  0  0  0  0  0  0  0
    5.3083   -2.3792    0.0000 O   0  0  0  0  0  0  0  0  0  0  0  0
    1.0292   -4.8625    0.0000 O   0  0  0  0  0  0  0  0  0  0  0  0
    1.0333   -3.2125    0.0000 O   0  0  0  0  0  0  0  0  0  0  0  0
    6.7375   -3.2000    0.0000 C   0  0  0  0  0  0  0  0  0  0  0  0
    6.0250   -4.4375    0.0000 C   0  0  0  0  0  0  0  0  0  0  0  0
    7.4500   -3.6083    0.0000 C   0  0  0  0  0  0  0  0  0  0  0  0
    6.7417   -4.8458    0.0000 C   0  0  0  0  0  0  0  0  0  0  0  0
  2  6  2  0
  3  1  1  0
  4  1  2  0
  5  2  1  0
  6  9  1  0
  7  2  1  0
  8  4  1  0
  9 11  2  0
 10  7  3  0
 11  1  1  0
 12  3  1  0
 13  5  1  0
 14  3  2  0
 15  8  2  0
 16  5  2  0
 17  4  1  0
 18  8  1  0
 19 13  1  0
 20 13  1  0
 21 19  1  0
 22 20  1  0
 15  9  1  0
M  CHG  2   3   1  12  -1
M  END
>  <ID>  (1180) 


>  <MOLENAME>  (1180) 
ENTACAPONE

>  <therap>  (1180) 
antidyskinetic

>  <ref>  (1180) 
Int. Rev. Neurobiol. (2010), 95, 191-205; Naunyn-Schmiedeberg's Arch. Pharmacol. (1992), 346(3), 262-6; Br. J. Pharmacol. (1992), 105(3), 569-74

>  <cas#>  (1180) 
116314-67-1

>  <source>  (1180) 
synthetic; OR-611

>  <status>  (1180) 
USAN, INN, BAN

>  <tradename>  (1180) 
CONTAM

>  <SMILES>  (1180) 
CCN(CC)C(=O)/C(C#N)=C/c1cc([N+](=O)[O-])c(O)c(O)c1

>  <standardized_failed>  (1180) 
False

$$$$

     RDKit          2D

 22 23  0  0  0  0  0  0  0  0999 V2000
    5.5667   -2.4875    0.0000 C   0  0  0  0  0  0  0  0  0  0  0  0
    4.7625   -2.3167    0.0000 S   0  0  0  0  0  0  0  0  0  0  0  0
    4.6792   -1.4917    0.0000 C   0  0  0  0  0  0  0  0  0  0  0  0
    5.4250   -1.1542    0.0000 N   0  0  0  0  0  0  0  0  0  0  0  0
    5.9792   -1.7667    0.0000 C   0  0  0  0  0  0  0  0  0  0  0  0
    5.9042   -3.2375    0.0000 C   0  0  0  0  0  0  0  0  0  0  0  0
    2.5292   -1.0792    0.0000 C   0  0  0  0  0  0  0  0  0  0  0  0
    3.9542   -1.0792    0.0000 C   0  0  0  0  0  0  0  0  0  0  0  0
    1.0917   -1.9000    0.0000 N   0  0  0  0  0  0  0  0  0  0  0  0
    1.8125   -1.4917    0.0000 C   0  0  0  0  0  0  0  0  0  0  0  0
    3.2417   -1.4917    0.0000 C   0  0  0  0  0  0  0  0  0  0  0  0
    2.5292   -0.2500    0.0000 C   0  0  0  0  0  0  0  0  0  0  0  0
    1.8167    0.1583    0.0000 O   0  0  0  0  0  0  0  0  0  0  0  0
    5.4250   -3.9042    0.0000 O   0  0  0  0  0  0  0  0  0  0  0  0
    3.9542   -0.2500    0.0000 C   0  0  0  0  0  0  0  0  0  0  0  0
    3.2417    0.1625    0.0000 C   0  0  0  0  0  0  0  0  0  0  0  0
    6.7292   -3.3250    0.0000 O   0  0  0  0  0  0  0  0  0  0  0  0
    1.8167    0.9833    0.0000 C   0  0  0  0  0  0  0  0  0  0  0  0
    6.8042   -1.6792    0.0000 C   0  0  0  0  0  0  0  0  0  0  0  0
    1.1000    1.3958    0.0000 C   0  0  0  0  0  0  0  0  0  0  0  0
    1.1000    2.2208    0.0000 C   0  0  0  0  0  0  0  0  0  0  0  0
    0.3875    0.9833    0.0000 C   0  0  0  0  0  0  0  0  0  0  0  0
  2  1  1  0
  3  2  1  0
  4  5  1  0
  5  1  2  0
  6  1  1  0
  7 11  2  0
  8  3  1  0
  9 10  3  0
 10  7  1  0
 11  8  1  0
 12 16  2  0
 13 12  1  0
 14  6  2  0
 15  8  2  0
 16 15  1  0
 17  6  1  0
 18 13  1  0
 19  5  1  0
 20 18  1  0
 21 20  1  0
 22 20  1  0
  4  3  2  0
 12  7  1  0
M  END
>  <ID>  (1181) 


>  <MOLENAME>  (1181) 
FEBUXOSTAT

>  <therap>  (1181) 
xanthine oxidase/dehydrogenase inhibitor

>  <ref>  (1181) 
N Engl J Med 353: 2450 (2005); Pharmacotherapy 30:594 (2010)

>  <cas#>  (1181) 
144060-53-7

>  <source>  (1181) 
synthetic; TEI-6720, TMX-67

>  <status>  (1181) 
USAN

>  <tradename>  (1181) 
ULORIC

>  <SMILES>  (1181) 
Cc1c(C(=O)O)sc(-c2ccc(OCC(C)C)c(C#N)c2)n1

>  <standardized_failed>  (1181) 
False

$$$$

     RDKit          2D

 33 36  0  0  0  0  0  0  0  0999 V2000
    3.3875   -2.7167    0.0000 C   0  0  0  0  0  0  0  0  0  0  0  0
    4.1917   -2.5417    0.0000 C   0  0  0  0  0  0  0  0  0  0  0  0
    3.6042   -3.5125    0.0000 C   0  0  0  0  0  0  0  0  0  0  0  0
    5.5167   -2.6917    0.0000 N   0  0  0  0  0  0  0  0  0  0  0  0
    4.8042   -3.1000    0.0000 C   0  0  0  0  0  0  0  0  0  0  0  0
    9.0792   -3.1125    0.0000 C   0  0  0  0  0  0  0  0  0  0  0  0
    9.0792   -3.9375    0.0000 C   0  0  0  0  0  0  0  0  0  0  0  0
    9.8625   -4.1917    0.0000 O   0  0  0  0  0  0  0  0  0  0  0  0
    4.5292   -1.7917    0.0000 C   0  0  0  0  0  0  0  0  0  0  0  0
    2.5917   -2.9292    0.0000 C   0  0  0  0  0  0  0  0  0  0  0  0
    3.1792   -1.9167    0.0000 C   0  0  0  0  0  0  0  0  0  0  0  0
    8.3667   -2.6917    0.0000 C   0  0  0  0  0  0  0  0  0  0  0  0
    4.4042   -3.7167    0.0000 O   0  0  0  0  0  0  0  0  0  0  0  0
    8.3667   -4.3500    0.0000 C   0  0  0  0  0  0  0  0  0  0  0  0
    5.3417   -1.8875    0.0000 C   0  0  0  0  0  0  0  0  0  0  0  0
    3.0292   -4.1000    0.0000 N   0  0  0  0  0  0  0  0  0  0  0  0
    6.2292   -3.1042    0.0000 C   0  0  0  0  0  0  0  0  0  0  0  0
    7.6500   -3.1042    0.0000 C   0  0  0  0  0  0  0  0  0  0  0  0
    7.6500   -3.9375    0.0000 C   0  0  0  0  0  0  0  0  0  0  0  0
   10.3417   -3.5250    0.0000 C   0  0  0  0  0  0  0  0  0  0  0  0
    6.9417   -2.6917    0.0000 C   0  0  0  0  0  0  0  0  0  0  0  0
    6.6792   -1.5542    0.0000 Br  0  0  0  0  0  0  0  0  0  0  0  0
    9.8625   -2.8542    0.0000 C   0  0  0  0  0  0  0  0  0  0  0  0
    2.3792   -1.6917    0.0000 C   0  0  0  0  0  0  0  0  0  0  0  0
    3.7625   -1.3375    0.0000 C   0  0  0  0  0  0  0  0  0  0  0  0
    2.3792   -3.7167    0.0000 C   0  0  0  0  0  0  0  0  0  0  0  0
    2.0167   -2.3500    0.0000 C   0  0  0  0  0  0  0  0  0  0  0  0
    3.5542   -0.5375    0.0000 C   0  0  0  0  0  0  0  0  0  0  0  0
    1.5917   -3.9292    0.0000 C   0  0  0  0  0  0  0  0  0  0  0  0
    1.2292   -2.5542    0.0000 C   0  0  0  0  0  0  0  0  0  0  0  0
    2.1667   -0.8917    0.0000 C   0  0  0  0  0  0  0  0  0  0  0  0
    2.7542   -0.3167    0.0000 C   0  0  0  0  0  0  0  0  0  0  0  0
    1.0125   -3.3542    0.0000 C   0  0  0  0  0  0  0  0  0  0  0  0
  1  2  1  0
  3  1  1  0
  4  5  1  0
  5  2  1  0
  6 12  2  0
  7 14  2  0
  8  7  1  0
  9  2  1  0
 10  1  1  0
 11  1  1  0
 12 18  1  0
 13  3  2  0
 14 19  1  0
 15  9  1  0
 16  3  1  0
 17  4  1  0
 18 21  1  0
 19 18  2  0
 20 23  1  0
 21 17  1  0
 23  6  1  0
 24 11  2  0
 25 11  1  0
 26 10  2  0
 27 10  1  0
 28 25  2  0
 29 26  1  0
 30 27  2  0
 31 24  1  0
 32 28  1  0
 33 29  2  0
  4 15  1  0
 32 31  2  0
 30 33  1  0
  6  7  1  0
  8 20  1  0
M  END
>  <ID>  (1182) 


>  <MOLENAME>  (1182) 
DARIFENACIN HYDROBROMIDE

>  <therap>  (1182) 
M3 muscarinic antagonist, bladder suppressant

>  <ref>  (1182) 
Life Sci. (1997), 60(13/14), 1053-1060; J. Recep. Signal Transduction Res. (1997), 17(1-3), 177-184; Drugs Future (1996), 21(11), 1105-1108

>  <cas#>  (1182) 
133099-07-7

>  <source>  (1182) 
synthetic; UK-88525-04

>  <status>  (1182) 
USAN, INN, BAN

>  <tradename>  (1182) 
ENABLEX

>  <SMILES>  (1182) 
NC(=O)C(c1ccccc1)(c1ccccc1)C1CCN(CCc2ccc3OCCc3c2)C1

>  <standardized_failed>  (1182) 
False

$$$$

     RDKit          2D

 22 23  0  0  0  0  0  0  0  0999 V2000
    6.8917   -0.4167    0.0000 C   0  0  0  0  0  0  0  0  0  0  0  0
    7.6042   -0.0042    0.0000 C   0  0  0  0  0  0  0  0  0  0  0  0
    3.2292   -1.6542    0.0000 C   0  0  0  0  0  0  0  0  0  0  0  0
    6.1750   -0.0042    0.0000 O   0  0  0  0  0  0  0  0  0  0  0  0
    3.2292   -2.4792    0.0000 C   0  0  0  0  0  0  0  0  0  0  0  0
    4.0375   -1.2542    0.0000 C   0  0  0  0  0  0  0  0  0  0  0  0
    7.6000    0.8208    0.0000 O   0  0  0  0  0  0  0  0  0  0  0  0
    2.5292   -1.2292    0.0000 O   0  0  0  0  0  0  0  0  0  0  0  0
    3.9417   -2.8917    0.0000 C   0  0  0  0  0  0  0  0  0  0  0  0
    4.0292   -0.4292    0.0000 C   0  0  0  0  0  0  0  0  0  0  0  0
    4.7542   -1.6667    0.0000 C   0  0  0  0  0  0  0  0  0  0  0  0
    2.5167   -2.8917    0.0000 C   0  0  0  0  0  0  0  0  0  0  0  0
    5.4625   -0.4167    0.0000 C   0  0  0  0  0  0  0  0  0  0  0  0
    8.3167   -0.4042    0.0000 O   0  0  0  0  0  0  0  0  0  0  0  0
    3.2292   -4.1292    0.0000 C   0  0  0  0  0  0  0  0  0  0  0  0
    5.4667   -1.2542    0.0000 C   0  0  0  0  0  0  0  0  0  0  0  0
    4.7417   -0.0167    0.0000 C   0  0  0  0  0  0  0  0  0  0  0  0
    2.5167   -3.7167    0.0000 C   0  0  0  0  0  0  0  0  0  0  0  0
    3.9417   -3.7167    0.0000 C   0  0  0  0  0  0  0  0  0  0  0  0
    3.2292   -4.9542    0.0000 Cl  0  0  0  0  0  0  0  0  0  0  0  0
    7.3542   -1.1292    0.0000 C   0  0  0  0  0  0  0  0  0  0  0  0
    6.4250   -1.1042    0.0000 C   0  0  0  0  0  0  0  0  0  0  0  0
  2  1  1  0
  3  6  1  0
  4  1  1  0
  5  3  1  0
  6 10  2  0
  7  2  2  0
  8  3  2  0
  9  5  2  0
 10 17  1  0
 11 16  2  0
 12  5  1  0
 13  4  1  0
 14  2  1  0
 15 18  1  0
 16 13  1  0
 17 13  2  0
 18 12  2  0
 19  9  1  0
 20 15  1  0
 21  1  1  0
 22  1  1  0
  6 11  1  0
 15 19  2  0
M  END
>  <ID>  (1183) 


>  <MOLENAME>  (1183) 
FENOFIBRIC ACID

>  <therap>  (1183) 
antihyperlipidemic

>  <ref>  (1183) 
Arterioscler Thromb Vasc Biol ;25:1193 (2005); Clin Drug Invest 28:625 (2008)

>  <cas#>  (1183) 
42017-89-0

>  <source>  (1183) 
synthetic; ABT-335

>  <status>  (1183) 
USAN, INN, BAN

>  <tradename>  (1183) 
TRILIPIX

>  <SMILES>  (1183) 
CC(C)(Oc1ccc(C(=O)c2ccc(Cl)cc2)cc1)C(=O)O

>  <standardized_failed>  (1183) 
False

$$$$

     RDKit          2D

 31 28  0  0  0  0  0  0  0  0999 V2000
    2.7250   -3.0750    0.0000 C   0  0  0  0  0  0  0  0  0  0  0  0
    9.5292   -3.0292    0.0000 C   0  0  0  0  0  0  0  0  0  0  0  0
    3.4375   -2.6625    0.0000 C   0  0  0  0  0  0  0  0  0  0  0  0
    8.8167   -2.6167    0.0000 C   0  0  0  0  0  0  0  0  0  0  0  0
    2.0083   -2.6625    0.0000 C   0  0  0  0  0  0  0  0  0  0  0  0
   10.2417   -2.6167    0.0000 C   0  0  0  0  0  0  0  0  0  0  0  0
   10.9542   -3.0292    0.0000 C   0  0  0  0  0  0  0  0  0  0  0  0
    1.3000   -3.0750    0.0000 C   0  0  0  0  0  0  0  0  0  0  0  0
    4.1500   -3.0750    0.0000 C   0  0  0  0  0  0  0  0  0  0  0  0
    8.1042   -3.0292    0.0000 C   0  0  0  0  0  0  0  0  0  0  0  0
   11.6667   -2.6167    0.0000 C   0  0  0  0  0  0  0  0  0  0  0  0
    0.5875   -2.6625    0.0000 C   0  0  0  0  0  0  0  0  0  0  0  0
    4.8625   -2.6625    0.0000 O   0  0  0  0  0  0  0  0  0  0  0  0
    7.3917   -2.6167    0.0000 O   0  0  0  0  0  0  0  0  0  0  0  0
    4.1500   -3.9000    0.0000 O   0  0  0  0  0  0  0  0  0  0  0  0
    8.1042   -3.8542    0.0000 O   0  0  0  0  0  0  0  0  0  0  0  0
    3.4375   -1.8375    0.0000 O   0  0  0  0  0  0  0  0  0  0  0  0
    8.8167   -1.7917    0.0000 O   0  0  0  0  0  0  0  0  0  0  0  0
    2.7250   -3.9000    0.0000 O   0  0  0  0  0  0  0  0  0  0  0  0
    9.5292   -3.8542    0.0000 O   0  0  0  0  0  0  0  0  0  0  0  0
    2.0083   -1.8375    0.0000 O   0  0  0  0  0  0  0  0  0  0  0  0
   10.2417   -1.7917    0.0000 O   0  0  0  0  0  0  0  0  0  0  0  0
    1.3000   -3.9000    0.0000 O   0  0  0  0  0  0  0  0  0  0  0  0
   10.9542   -3.8542    0.0000 O   0  0  0  0  0  0  0  0  0  0  0  0
    0.5875   -1.8375    0.0000 O   0  0  0  0  0  0  0  0  0  0  0  0
   11.6625   -1.7917    0.0000 O   0  0  0  0  0  0  0  0  0  0  0  0
    5.6792   -3.2500    0.0000 Ca  0  0  0  0  0 15  0  0  0  0  0  0
   13.0917   -2.6167    0.0000 O   0  0  0  0  0  0  0  0  0  0  0  0
   -0.8417   -2.6583    0.0000 O   0  0  0  0  0  0  0  0  0  0  0  0
   -0.1292   -3.0708    0.0000 C   0  0  0  0  0  0  0  0  0  0  0  0
   12.3792   -3.0292    0.0000 C   0  0  0  0  0  0  0  0  0  0  0  0
  3  1  1  0
  4  2  1  0
  5  1  1  0
  6  2  1  0
  7  6  1  0
  8  5  1  0
  9  3  1  0
 10  4  1  0
 11  7  1  0
 12  8  1  0
 13  9  1  0
 14 10  1  0
 15  9  2  0
 16 10  2  0
 17  3  1  0
 18  4  1  0
  1 19  1  6
  2 20  1  1
  5 21  1  1
  6 22  1  6
  8 23  1  6
  7 24  1  1
 12 25  1  1
 11 26  1  6
 28 31  1  0
 29 30  1  0
 30 12  1  0
 31 11  1  0
M  CHG  3  13  -1  14  -1  27   2
M  END
>  <ID>  (1184) 


>  <MOLENAME>  (1184) 
CALCIUM GLUCEPTATE

>  <therap>  (1184) 
calcium replenisher

>  <ref>  (1184) 
Br J Anaesth 52:501 (1980); J Pharmaceut Sci Technol 40:48 (1986) 

>  <cas#>  (1184) 
299-28-5

>  <source>  (1184) 
synthetic

>  <status>  (1184) 
USP

>  <tradename>  (1184) 
nan

>  <SMILES>  (1184) 
O=C([O-])C(O)[C@H](O)[C@H](O)[C@H](O)[C@H](O)CO.O=C([O-])C(O)[C@H](O)[C@H](O)[C@H](O)[C@H](O)CO.[Ca+2]

>  <standardized_failed>  (1184) 
False

$$$$

     RDKit          2D

 34 34  0  0  0  0  0  0  0  0999 V2000
    9.5417   -3.0500    0.0000 C   0  0  0  0  0  0  0  0  0  0  0  0
    8.7667   -2.7917    0.0000 N   0  0  0  0  0  0  0  0  0  0  0  0
    8.7625   -1.9750    0.0000 C   0  0  0  0  0  0  0  0  0  0  0  0
   10.0292   -2.3875    0.0000 N   0  0  0  0  0  0  0  0  0  0  0  0
    9.5417   -1.7167    0.0000 N   0  0  0  0  0  0  0  0  0  0  0  0
    9.8042   -3.8292    0.0000 C   0  0  0  0  0  0  0  0  0  0  0  0
    7.3417   -1.9792    0.0000 N   0  0  0  0  0  0  0  0  0  0  0  0
    6.6292   -1.5667    0.0000 C   0  0  0  0  0  0  0  0  0  0  0  0
    7.5542    0.5625    0.0000 P   0  0  0  0  0  0  0  0  0  0  0  0
    8.0500   -1.5625    0.0000 C   0  0  0  0  0  0  0  0  0  0  0  0
    5.9167   -1.9792    0.0000 C   0  0  0  0  0  0  0  0  0  0  0  0
    3.7792   -1.5792    0.0000 C   0  0  0  0  0  0  0  0  0  0  0  0
    8.0542   -3.2042    0.0000 C   0  0  0  0  0  0  0  0  0  0  0  0
    2.3542   -1.5792    0.0000 C   0  0  0  0  0  0  0  0  0  0  0  0
    3.0667   -1.9917    0.0000 C   0  0  0  0  0  0  0  0  0  0  0  0
    2.3542   -0.7500    0.0000 C   0  0  0  0  0  0  0  0  0  0  0  0
    3.0667   -0.3375    0.0000 C   0  0  0  0  0  0  0  0  0  0  0  0
    3.7792   -0.7500    0.0000 C   0  0  0  0  0  0  0  0  0  0  0  0
    7.3417   -2.7917    0.0000 C   0  0  0  0  0  0  0  0  0  0  0  0
    6.7417    0.1583    0.0000 O   0  0  0  0  0  0  0  0  0  0  0  0
    4.4917   -1.9875    0.0000 C   0  0  0  0  0  0  0  0  0  0  0  0
    6.6292   -0.7417    0.0000 O   0  0  0  0  0  0  0  0  0  0  0  0
    5.2042   -1.5750    0.0000 C   0  0  0  0  0  0  0  0  0  0  0  0
   10.0167   -4.6292    0.0000 F   0  0  0  0  0  0  0  0  0  0  0  0
    9.2500   -4.4458    0.0000 F   0  0  0  0  0  0  0  0  0  0  0  0
   10.6042   -4.0042    0.0000 F   0  0  0  0  0  0  0  0  0  0  0  0
    8.2667    0.9833    0.0000 O   0  0  0  0  0  0  0  0  0  0  0  0
    7.0875    1.2500    0.0000 O   0  0  0  0  0  0  0  0  0  0  0  0
    7.9667   -0.1500    0.0000 O   0  0  0  0  0  0  0  0  0  0  0  0
    3.0667   -2.8167    0.0000 F   0  0  0  0  0  0  0  0  0  0  0  0
    1.6417   -0.3417    0.0000 F   0  0  0  0  0  0  0  0  0  0  0  0
    3.0542    0.4875    0.0000 F   0  0  0  0  0  0  0  0  0  0  0  0
    5.2042   -0.7500    0.0000 N   0  0  0  0  0  0  0  0  0  0  0  0
    9.9625    0.3750    0.0000 O   0  0  0  0  0  0  0  0  0  0  0  0
  2  1  1  0
  3  2  1  0
  4  1  2  0
  5  4  1  0
  6  1  1  0
  7 10  1  0
  8  7  1  0
 10  3  1  0
 11  8  1  0
 12 21  1  0
 13  2  1  0
 14 15  2  0
 15 12  1  0
 16 17  2  0
 17 18  1  0
 18 12  2  0
 19 13  1  0
 20  9  2  0
 21 23  1  0
 22  8  2  0
 23 11  1  0
 24  6  1  0
 25  6  1  0
 26  6  1  0
 27  9  1  0
 28  9  1  0
 29  9  1  0
 30 15  1  0
 31 16  1  0
 32 17  1  0
 23 33  1  1
  3  5  2  0
 19  7  1  0
 14 16  1  0
M  END
>  <ID>  (1185) 


>  <MOLENAME>  (1185) 
SITAGLIPTIN MONOPHOSPHATE MONOHYDRATE

>  <therap>  (1185) 
DPP4 inhibitor, antidiabetic

>  <ref>  (1185) 
Clin Ther 28:1556 (2006); Diabetes Care 29:2632 (2006); Nature Rev Drug Discov 6:109 (2007)

>  <cas#>  (1185) 
486460-32-6

>  <source>  (1185) 
synthetic; MK-0431

>  <status>  (1185) 
USAN

>  <tradename>  (1185) 
JANUVIA

>  <SMILES>  (1185) 
N[C@@H](CC(=O)N1CCn2c(nnc2C(F)(F)F)C1)Cc1cc(F)c(F)cc1F

>  <standardized_failed>  (1185) 
False

$$$$

     RDKit          2D

 10 10  0  0  0  0  0  0  0  0999 V2000
    0.5667    0.9333    0.0000 C   0  0  0  0  0  0  0  0  0  0  0  0
   -0.2333    1.3958    0.0000 N   0  0  0  0  0  0  0  0  0  0  0  0
    1.4542    1.3625    0.0000 O   0  0  0  0  0  0  0  0  0  0  0  0
   -1.0458    0.9208    0.0000 C   0  0  0  0  0  0  0  0  0  0  0  0
    0.5667   -0.0000    0.0000 C   0  0  0  0  0  0  0  0  0  0  0  0
   -1.0458   -0.0167    0.0000 C   0  0  0  0  0  0  0  0  0  0  0  0
   -1.8500    1.3958    0.0000 C   0  0  0  0  0  0  0  0  0  0  0  0
   -2.6625    0.9208    0.0000 C   0  0  0  0  0  0  0  0  0  0  0  0
   -1.8500   -0.4875    0.0000 C   0  0  0  0  0  0  0  0  0  0  0  0
   -2.6625   -0.0167    0.0000 C   0  0  0  0  0  0  0  0  0  0  0  0
  2  1  1  0
  3  1  2  0
  4  2  1  0
  5  1  1  0
  6  4  2  0
  7  4  1  0
  8  7  2  0
  9  6  1  0
 10  8  1  0
  9 10  2  0
M  END
>  <ID>  (1186) 


>  <MOLENAME>  (1186) 
ACETANILIDE

>  <therap>  (1186) 
analgesic, antipyretic

>  <ref>  (1186) 
J Pharmacol Exp Ther 90:68 (1947); 94:29, 76 (1948)

>  <cas#>  (1186) 
103-84-4

>  <source>  (1186) 
synthetic

>  <status>  (1186) 
NF

>  <tradename>  (1186) 
ANTIFEBRIN

>  <SMILES>  (1186) 
CC(=O)Nc1ccccc1

>  <standardized_failed>  (1186) 
False

$$$$

     RDKit          2D

 17 18  0  0  0  0  0  0  0  0999 V2000
    1.6917    0.0208    0.0000 S   0  0  0  0  0  0  0  0  0  0  0  0
    1.6917   -1.4125    0.0000 N   0  0  0  0  0  0  0  0  0  0  0  0
    2.1042   -0.6917    0.0000 C   0  0  0  0  0  0  0  0  0  0  0  0
    0.8667   -1.4125    0.0000 C   0  0  0  0  0  0  0  0  0  0  0  0
    0.4542   -0.6917    0.0000 C   0  0  0  0  0  0  0  0  0  0  0  0
    0.8667    0.0208    0.0000 C   0  0  0  0  0  0  0  0  0  0  0  0
    2.1125    0.7375    0.0000 O   0  0  0  0  0  0  0  0  0  0  0  0
    1.0792    0.6333    0.0000 O   0  0  0  0  0  0  0  0  0  0  0  0
    2.9875   -0.6750    0.0000 C   0  0  0  0  0  0  0  0  0  0  0  0
    0.4417   -2.1292    0.0000 O   0  0  0  0  0  0  0  0  0  0  0  0
    3.4000   -1.3917    0.0000 C   0  0  0  0  0  0  0  0  0  0  0  0
    3.4042    0.0458    0.0000 C   0  0  0  0  0  0  0  0  0  0  0  0
    2.1167   -2.1292    0.0000 C   0  0  0  0  0  0  0  0  0  0  0  0
    4.6417   -0.6667    0.0000 C   0  0  0  0  0  0  0  0  0  0  0  0
    4.2292    0.0458    0.0000 C   0  0  0  0  0  0  0  0  0  0  0  0
    4.2292   -1.3917    0.0000 C   0  0  0  0  0  0  0  0  0  0  0  0
    5.4667   -0.6625    0.0000 Cl  0  0  0  0  0  0  0  0  0  0  0  0
  2  3  1  0
  3  1  1  0
  4  5  1  0
  5  6  1  0
  6  1  1  0
  7  1  2  0
  8  1  2  0
  9  3  1  0
 10  4  2  0
 11  9  2  0
 12  9  1  0
 13  2  1  0
 14 15  1  0
 15 12  2  0
 16 11  1  0
 17 14  1  0
  2  4  1  0
 14 16  2  0
M  END
>  <ID>  (1187) 


>  <MOLENAME>  (1187) 
CHLORMEZANONE

>  <therap>  (1187) 
anxiolytic, muscle relaxant

>  <ref>  (1187) 
hepatotoxic at clinical dose (600mg)

>  <cas#>  (1187) 
80-77-3

>  <source>  (1187) 
synthetic

>  <status>  (1187) 
USAN, INN, BAN, JAN

>  <tradename>  (1187) 
TRANCOPAL

>  <SMILES>  (1187) 
CN1C(=O)CCS(=O)(=O)C1c1ccc(Cl)cc1

>  <standardized_failed>  (1187) 
False

$$$$

     RDKit          2D

 17 16  0  0  0  0  0  0  0  0999 V2000
    5.4667   -3.3792    0.0000 N   0  0  0  0  0  0  0  0  0  0  0  0
    4.7542   -3.7917    0.0000 C   0  0  0  0  0  0  0  0  0  0  0  0
    4.0500   -2.5542    0.0000 C   0  0  0  0  0  0  0  0  0  0  0  0
    4.0500   -3.3792    0.0000 C   0  0  0  0  0  0  0  0  0  0  0  0
    4.7542   -2.1417    0.0000 N   0  0  0  0  0  0  0  0  0  0  0  0
    5.4667   -2.5542    0.0000 C   0  0  0  0  0  0  0  0  0  0  0  0
    6.1875   -2.1417    0.0000 S   0  0  0  0  0  0  0  0  0  0  0  0
    4.7542   -4.6167    0.0000 O   0  0  0  0  0  0  0  0  0  0  0  0
    3.3292   -2.1417    0.0000 O   0  0  0  0  0  0  0  0  0  0  0  0
    3.6292   -4.0917    0.0000 C   0  0  0  0  0  0  0  0  0  0  0  0
    3.2167   -3.3875    0.0000 C   0  0  0  0  0  0  0  0  0  0  0  0
    7.3250   -2.5542    0.0000 Na  0  0  0  0  0 15  0  0  0  0  0  0
    2.8042   -4.0875    0.0000 C   0  0  0  0  0  0  0  0  0  0  0  0
    4.0417   -4.8125    0.0000 C   0  0  0  0  0  0  0  0  0  0  0  0
    3.0042   -2.5875    0.0000 C   0  0  0  0  0  0  0  0  0  0  0  0
    2.3917   -4.8000    0.0000 C   0  0  0  0  0  0  0  0  0  0  0  0
    1.5667   -4.7917    0.0000 C   0  0  0  0  0  0  0  0  0  0  0  0
  2  1  1  0
  3  5  1  0
  4  2  1  0
  5  6  1  0
  6  1  2  0
  7  6  1  0
  8  2  2  0
  9  3  2  0
 10  4  1  0
 11  4  1  0
 13 10  1  0
 14 10  1  0
 15 11  1  0
 16 13  1  0
 17 16  1  0
  4  3  1  0
M  CHG  2   7  -1  12   1
M  END
>  <ID>  (1188) 


>  <MOLENAME>  (1188) 
THIOPENTAL SODIUM

>  <therap>  (1188) 
anesthetic

>  <ref>  (1188) 
Prehosp Disast Med 20:324 (2005); Pakistan Vet J 29:11 (2009); J Psychopharmacol 24:203 (2010)

>  <cas#>  (1188) 
71-73-8, 76-75-5 [thiopental]

>  <source>  (1188) 
synthetic

>  <status>  (1188) 
USP, INN, BAN, JAN

>  <tradename>  (1188) 
PENTOTHAL

>  <SMILES>  (1188) 
CCCC(C)C1(CC)C(=O)N=C(S)NC1=O

>  <standardized_failed>  (1188) 
False

$$$$

     RDKit          2D

 22 25  0  0  0  0  0  0  0  0999 V2000
    2.5167   -2.4750    0.0000 N   0  0  0  0  0  0  0  0  0  0  0  0
    1.8000   -2.0542    0.0000 C   0  0  0  0  0  0  0  0  0  0  0  0
    1.0917   -3.3000    0.0000 C   0  0  0  0  0  0  0  0  0  0  0  0
    1.0875   -2.4750    0.0000 C   0  0  0  0  0  0  0  0  0  0  0  0
    1.7917   -1.2375    0.0000 C   0  0  0  0  0  0  0  0  0  0  0  0
    3.2250   -2.0625    0.0000 C   0  0  0  0  0  0  0  0  0  0  0  0
    0.3792   -3.7167    0.0000 C   0  0  0  0  0  0  0  0  0  0  0  0
    2.5042   -0.8250    0.0000 C   0  0  0  0  0  0  0  0  0  0  0  0
    3.2250   -1.2292    0.0000 C   0  0  0  0  0  0  0  0  0  0  0  0
    2.1000   -1.7542    0.0000 C   0  0  0  0  0  0  0  0  0  0  0  0
    1.1000   -4.9542    0.0000 N   0  0  0  0  0  0  0  0  0  0  0  0
    0.3792   -4.5417    0.0000 C   0  0  0  0  0  0  0  0  0  0  0  0
    3.9417   -0.8167    0.0000 C   0  0  0  0  0  0  0  0  0  0  0  0
    2.7167   -1.6167    0.0000 C   0  0  0  0  0  0  0  0  0  0  0  0
    4.6542   -1.2292    0.0000 C   0  0  0  0  0  0  0  0  0  0  0  0
    0.2625   -2.4667    0.0000 O   0  0  0  0  0  0  0  0  0  0  0  0
    1.8125   -4.5375    0.0000 C   0  0  0  0  0  0  0  0  0  0  0  0
    1.8042   -3.7042    0.0000 C   0  0  0  0  0  0  0  0  0  0  0  0
   -0.3333   -3.3042    0.0000 C   0  0  0  0  0  0  0  0  0  0  0  0
   -0.3333   -4.9542    0.0000 C   0  0  0  0  0  0  0  0  0  0  0  0
   -1.0458   -3.7167    0.0000 C   0  0  0  0  0  0  0  0  0  0  0  0
   -1.0458   -4.5417    0.0000 C   0  0  0  0  0  0  0  0  0  0  0  0
  2  1  1  0
  3  4  1  0
  2  4  1  0
  2  5  1  6
  1  6  1  1
  7  3  1  0
  8 14  1  6
  9  6  1  0
  1 10  1  0
 11 17  2  0
 12  7  2  0
  9 13  1  1
 14 10  1  0
 15 13  2  0
  4 16  1  1
 17 18  1  0
 18  3  2  0
 19  7  1  0
 20 12  1  0
 21 19  2  0
 22 21  1  0
  8  9  1  0
  5  8  1  0
 11 12  1  0
 20 22  2  0
M  END
>  <ID>  (1189) 


>  <MOLENAME>  (1189) 
CINCHONIDINE

>  <therap>  (1189) 
antimalarial

>  <ref>  (1189) 
Acta Pharmacol Toxicol 4:265 (1948); Ecotoxicol Environ Saf 6:149 (1982)

>  <cas#>  (1189) 
485-71-2

>  <source>  (1189) 
Cinchona spp

>  <status>  (1189) 
NF-IX

>  <tradename>  (1189) 
nan

>  <SMILES>  (1189) 
C=C[C@H]1C[N@]2CC[C@H]1C[C@H]2[C@H](O)c1ccnc2c1cccc2

>  <standardized_failed>  (1189) 
False

$$$$

     RDKit          2D

 22 25  0  0  0  0  0  0  0  0999 V2000
    6.4500   -3.1000    0.0000 N   0  0  0  0  0  0  0  0  0  0  0  0
    5.7292   -2.6792    0.0000 C   0  0  0  0  0  0  0  0  0  0  0  0
    5.0250   -3.9250    0.0000 C   0  0  0  0  0  0  0  0  0  0  0  0
    5.0167   -3.1000    0.0000 C   0  0  0  0  0  0  0  0  0  0  0  0
    5.7250   -1.8625    0.0000 C   0  0  0  0  0  0  0  0  0  0  0  0
    7.1542   -2.6875    0.0000 C   0  0  0  0  0  0  0  0  0  0  0  0
    4.3167   -4.3417    0.0000 C   0  0  0  0  0  0  0  0  0  0  0  0
    6.4417   -1.4500    0.0000 C   0  0  0  0  0  0  0  0  0  0  0  0
    7.1542   -1.8542    0.0000 C   0  0  0  0  0  0  0  0  0  0  0  0
    6.0292   -2.3792    0.0000 C   0  0  0  0  0  0  0  0  0  0  0  0
    5.0292   -5.5792    0.0000 N   0  0  0  0  0  0  0  0  0  0  0  0
    4.3167   -5.1667    0.0000 C   0  0  0  0  0  0  0  0  0  0  0  0
    7.8750   -1.4417    0.0000 C   0  0  0  0  0  0  0  0  0  0  0  0
    6.6542   -2.2417    0.0000 C   0  0  0  0  0  0  0  0  0  0  0  0
    8.5875   -1.8542    0.0000 C   0  0  0  0  0  0  0  0  0  0  0  0
    4.1917   -3.0917    0.0000 O   0  0  0  0  0  0  0  0  0  0  0  0
    5.7417   -5.1625    0.0000 C   0  0  0  0  0  0  0  0  0  0  0  0
    5.7417   -4.3292    0.0000 C   0  0  0  0  0  0  0  0  0  0  0  0
    3.6000   -3.9292    0.0000 C   0  0  0  0  0  0  0  0  0  0  0  0
    3.6000   -5.5792    0.0000 C   0  0  0  0  0  0  0  0  0  0  0  0
    2.8875   -4.3417    0.0000 C   0  0  0  0  0  0  0  0  0  0  0  0
    2.8875   -5.1667    0.0000 C   0  0  0  0  0  0  0  0  0  0  0  0
  2  1  1  0
  3  4  1  0
  2  4  1  0
  2  5  1  1
  1  6  1  1
  7  3  1  0
  8 14  1  6
  9  6  1  0
  1 10  1  0
 11 17  2  0
 12  7  2  0
  9 13  1  1
 14 10  1  0
 15 13  2  0
  4 16  1  1
 17 18  1  0
 18  3  2  0
 19  7  1  0
 20 12  1  0
 21 19  2  0
 22 21  1  0
  9  8  1  0
  8  5  1  0
 12 11  1  0
 22 20  2  0
M  END
>  <ID>  (1190) 


>  <MOLENAME>  (1190) 
CINCHONINE

>  <therap>  (1190) 
antimalarial

>  <ref>  (1190) 
Acta Pharmacol Toxicol 4:265 (1949)

>  <cas#>  (1190) 
118-10-5

>  <source>  (1190) 
Cinchona spp

>  <status>  (1190) 
NF-IX

>  <tradename>  (1190) 
nan

>  <SMILES>  (1190) 
C=C[C@H]1C[N@]2CC[C@H]1C[C@@H]2[C@H](O)c1ccnc2c1cccc2

>  <standardized_failed>  (1190) 
False

$$$$

     RDKit          2D

 14 14  0  0  0  0  0  0  0  0999 V2000
    5.7333   -3.6083    0.0000 As  0  0  0  0  0  5  0  0  0  0  0  0
    2.1625   -4.8542    0.0000 C   0  0  0  0  0  0  0  0  0  0  0  0
    5.0208   -4.0250    0.0000 C   0  0  0  0  0  0  0  0  0  0  0  0
    2.8750   -5.2667    0.0000 N   0  0  0  0  0  0  0  0  0  0  0  0
    5.7292   -2.7833    0.0000 O   0  0  0  0  0  0  0  0  0  0  0  0
    2.1625   -4.0292    0.0000 O   0  0  0  0  0  0  0  0  0  0  0  0
    6.4417   -3.1917    0.0000 O   0  0  0  0  0  0  0  0  0  0  0  0
    6.4500   -4.0167    0.0000 O   0  0  0  0  0  0  0  0  0  0  0  0
    4.3042   -3.6125    0.0000 C   0  0  0  0  0  0  0  0  0  0  0  0
    5.0208   -4.8542    0.0000 C   0  0  0  0  0  0  0  0  0  0  0  0
    1.4458   -5.2667    0.0000 N   0  0  0  0  0  0  0  0  0  0  0  0
    3.5917   -4.8542    0.0000 C   0  0  0  0  0  0  0  0  0  0  0  0
    4.3042   -5.2667    0.0000 C   0  0  0  0  0  0  0  0  0  0  0  0
    3.5917   -4.0250    0.0000 C   0  0  0  0  0  0  0  0  0  0  0  0
  2  4  1  0
  3  1  1  0
  4 12  1  0
  5  1  2  0
  6  2  2  0
  7  1  1  0
  8  1  1  0
  9  3  2  0
 10  3  1  0
 11  2  1  0
 12 14  2  0
 13 10  2  0
 14  9  1  0
 13 12  1  0
M  END
>  <ID>  (1191) 


>  <MOLENAME>  (1191) 
CARBARSONE

>  <therap>  (1191) 
antiamebic, antiprotozoal

>  <ref>  (1191) 
Proc Soc Exp Bio Med 29:125 (1931)

>  <cas#>  (1191) 
121-59-5

>  <source>  (1191) 
synthetic

>  <status>  (1191) 
USP-XXI, INN

>  <tradename>  (1191) 
AMEBARSONE

>  <SMILES>  (1191) 
NC(=O)Nc1ccc([As](=O)(O)O)cc1

>  <standardized_failed>  (1191) 
False

$$$$

     RDKit          2D

 23 23  0  0  0  0  0  0  0  0999 V2000
    6.5375   -3.5125    0.0000 C   0  0  0  0  0  0  0  0  0  0  0  0
    5.8250   -3.1000    0.0000 C   0  0  0  0  0  0  0  0  0  0  0  0
    6.5375   -4.3375    0.0000 C   0  0  0  0  0  0  0  0  0  0  0  0
    5.8167   -8.0625    0.0000 C   0  0  0  0  0  0  0  0  0  0  0  0
    5.1042   -3.5125    0.0000 C   0  0  0  0  0  0  0  0  0  0  0  0
    5.8167   -7.2292    0.0000 C   0  0  0  0  0  0  0  0  0  0  0  0
    5.8250   -4.7500    0.0000 C   0  0  0  0  0  0  0  0  0  0  0  0
    6.5375   -8.4750    0.0000 C   0  0  0  0  0  0  0  0  0  0  0  0
    7.2542   -3.0875    0.0000 O   0  0  0  0  0  0  0  0  0  0  0  0
    5.1042   -6.8167    0.0000 C   0  0  0  0  0  0  0  0  0  0  0  0
    5.1042   -4.3375    0.0000 C   0  0  0  0  0  0  0  0  0  0  0  0
    6.5375   -6.8167    0.0000 N   0  0  0  0  0  0  0  0  0  0  0  0
    5.8250   -2.2750    0.0000 O   0  0  0  0  0  0  0  0  0  0  0  0
    8.0417   -6.3375    0.0000 Cl  0  0  0  0  0  0  0  0  0  0  0  0
    5.1125   -5.9917    0.0000 O   0  0  0  0  0  0  0  0  0  0  0  0
    4.3875   -8.0625    0.0000 C   0  0  0  0  0  0  0  0  0  0  0  0
    5.1000   -8.4750    0.0000 C   0  0  0  0  0  0  0  0  0  0  0  0
    7.2500   -8.0625    0.0000 C   0  0  0  0  0  0  0  0  0  0  0  0
    7.2500   -7.2292    0.0000 C   0  0  0  0  0  0  0  0  0  0  0  0
    4.3875   -7.2292    0.0000 C   0  0  0  0  0  0  0  0  0  0  0  0
    6.5375   -5.9875    0.0000 C   0  0  0  0  0  0  0  0  0  0  0  0
    5.8250   -5.5750    0.0000 C   0  0  0  0  0  0  0  0  0  0  0  0
    7.9625   -8.4750    0.0000 C   0  0  0  0  0  0  0  0  0  0  0  0
  2  1  2  0
  3  1  1  0
  4  8  1  0
  5  2  1  0
  6  4  2  0
  7  3  2  0
  8 18  1  0
  9  1  1  0
 10  6  1  0
 11  7  1  0
 12 21  1  0
 13  2  1  0
 15 10  1  0
 16 17  2  0
 17  4  1  0
 18 19  1  0
 19 12  1  0
 20 16  1  0
 21 22  1  0
 22  7  1  0
 23 18  1  0
 11  5  2  0
 20 10  2  0
M  END
>  <ID>  (1192) 


>  <MOLENAME>  (1192) 
DOBUTAMINE HYDROCHLORIDE

>  <therap>  (1192) 
cardiotonic

>  <ref>  (1192) 
Pharmacotherapy (1989), 9(4), 245-59; Circulation Res. (1975), 36(1), 185-96; J. Clin. Invest. (1974), 53(5), 1265-73

>  <cas#>  (1192) 
49745-95-1, 34368-04-2 [dobutamine]

>  <source>  (1192) 
synthetic; 46236

>  <status>  (1192) 
USP, INN, BAN

>  <tradename>  (1192) 
DOBUTREX

>  <SMILES>  (1192) 
CC(CNCCc1cc(O)c(O)cc1)Cc1cc(O)ccc1

>  <standardized_failed>  (1192) 
False

$$$$

     RDKit          2D

 11 10  0  0  0  0  0  0  0  0999 V2000
    6.0792   -3.7917    0.0000 P   0  0  0  0  0  0  0  0  0  0  0  0
    7.5042   -3.7917    0.0000 C   0  0  0  0  0  0  0  0  0  0  0  0
    8.2167   -4.2042    0.0000 C   0  0  0  0  0  0  0  0  0  0  0  0
    6.7917   -4.2042    0.0000 O   0  0  0  0  0  0  0  0  0  0  0  0
    5.3625   -3.3792    0.0000 O   0  0  0  0  0  0  0  0  0  0  0  0
    6.0792   -2.9667    0.0000 O   0  0  0  0  0  0  0  0  0  0  0  0
    5.3625   -4.2042    0.0000 O   0  0  0  0  0  0  0  0  0  0  0  0
    8.9375   -3.7917    0.0000 Cl  0  0  0  0  0  0  0  0  0  0  0  0
    8.2167   -5.0292    0.0000 Cl  0  0  0  0  0  0  0  0  0  0  0  0
    5.3667   -2.5542    0.0000 C   0  0  0  0  0  0  0  0  0  0  0  0
    5.3625   -5.0292    0.0000 C   0  0  0  0  0  0  0  0  0  0  0  0
  2  4  1  0
  3  2  2  0
  4  1  1  0
  5  1  2  0
  6  1  1  0
  7  1  1  0
  8  3  1  0
  9  3  1  0
 10  6  1  0
 11  7  1  0
M  END
>  <ID>  (1193) 


>  <MOLENAME>  (1193) 
DICHLORVOS

>  <therap>  (1193) 
insecticide, cholinesterase inhibitor

>  <ref>  (1193) 
Regul Toxicol Pharmacol 29:64 (1999); 31:13 (2000); Toxicology 253:13 (2008)

>  <cas#>  (1193) 
62-73-7

>  <source>  (1193) 
synthetic

>  <status>  (1193) 
USAN, INN, BAN

>  <tradename>  (1193) 
nan

>  <SMILES>  (1193) 
COP(=O)(OC)OC=C(Cl)Cl

>  <standardized_failed>  (1193) 
False

$$$$

     RDKit          2D

 19 20  0  0  0  0  0  0  0  0999 V2000
    3.6292   -2.1667    0.0000 S   0  0  0  0  0  0  0  0  0  0  0  0
    4.3417   -2.5792    0.0000 C   0  0  0  0  0  0  0  0  0  0  0  0
    2.9167   -2.5792    0.0000 C   0  0  0  0  0  0  0  0  0  0  0  0
    5.0542   -2.1667    0.0000 C   0  0  0  0  0  0  0  0  0  0  0  0
    3.6292   -1.3417    0.0000 O   0  0  0  0  0  0  0  0  0  0  0  0
    5.7750   -2.5792    0.0000 O   0  0  0  0  0  0  0  0  0  0  0  0
    2.9167   -3.4042    0.0000 C   0  0  0  0  0  0  0  0  0  0  0  0
    2.1917   -2.1667    0.0000 C   0  0  0  0  0  0  0  0  0  0  0  0
    5.0542   -1.3417    0.0000 N   0  0  0  0  0  0  0  0  0  0  0  0
    2.2042   -3.8167    0.0000 C   0  0  0  0  0  0  0  0  0  0  0  0
    3.6292   -3.8125    0.0000 C   0  0  0  0  0  0  0  0  0  0  0  0
    1.4792   -2.5792    0.0000 C   0  0  0  0  0  0  0  0  0  0  0  0
    2.1917   -1.3417    0.0000 C   0  0  0  0  0  0  0  0  0  0  0  0
    3.6375   -4.6375    0.0000 C   0  0  0  0  0  0  0  0  0  0  0  0
    1.4792   -0.9292    0.0000 C   0  0  0  0  0  0  0  0  0  0  0  0
    0.7667   -2.1667    0.0000 C   0  0  0  0  0  0  0  0  0  0  0  0
    2.2042   -4.6417    0.0000 C   0  0  0  0  0  0  0  0  0  0  0  0
    0.7667   -1.3417    0.0000 C   0  0  0  0  0  0  0  0  0  0  0  0
    2.9167   -5.0542    0.0000 C   0  0  0  0  0  0  0  0  0  0  0  0
  2  1  1  0
  3  1  1  0
  4  2  1  0
  5  1  2  0
  6  4  2  0
  7  3  1  0
  8  3  1  0
  9  4  1  0
 10  7  2  0
 11  7  1  0
 12  8  2  0
 13  8  1  0
 14 11  2  0
 15 13  2  0
 16 12  1  0
 17 10  1  0
 18 15  1  0
 19 14  1  0
 18 16  2  0
 19 17  2  0
M  END
>  <ID>  (1194) 


>  <MOLENAME>  (1194) 
MODAFINIL

>  <therap>  (1194) 
analeptic

>  <ref>  (1194) 
Int J Clin Pharmacol Res 9:1893 (1989); Biol Psychiatry 55:1031 (2004)

>  <cas#>  (1194) 
68693-11-8

>  <source>  (1194) 
synthetic; CRL-40476, CEP-1538

>  <status>  (1194) 
USAN, INN, BAN

>  <tradename>  (1194) 
PROVIGIL

>  <SMILES>  (1194) 
NC(=O)C[S+]([O-])C(c1ccccc1)c1ccccc1

>  <standardized_failed>  (1194) 
False

$$$$

     RDKit          2D

 18 17  0  0  0  0  0  0  0  0999 V2000
    5.2292   -1.8042    0.0000 N   0  0  0  0  0  0  0  0  0  0  0  0
    4.5167   -2.2125    0.0000 C   0  0  0  0  0  0  0  0  0  0  0  0
    3.8125   -0.9792    0.0000 C   0  0  0  0  0  0  0  0  0  0  0  0
    3.8125   -1.8042    0.0000 C   0  0  0  0  0  0  0  0  0  0  0  0
    4.5167   -0.5625    0.0000 N   0  0  0  0  0  0  0  0  0  0  0  0
    5.2292   -0.9792    0.0000 C   0  0  0  0  0  0  0  0  0  0  0  0
    5.9500   -0.5667    0.0000 S   0  0  0  0  0  0  0  0  0  0  0  0
    4.5167   -3.0375    0.0000 O   0  0  0  0  0  0  0  0  0  0  0  0
    3.0917   -0.5667    0.0000 O   0  0  0  0  0  0  0  0  0  0  0  0
    3.3917   -2.5167    0.0000 C   0  0  0  0  0  0  0  0  0  0  0  0
    2.6042   -1.1292    0.0000 C   0  0  0  0  0  0  0  0  0  0  0  0
    2.9792   -1.8042    0.0000 C   0  0  0  0  0  0  0  0  0  0  0  0
    1.7792   -1.1292    0.0000 C   0  0  0  0  0  0  0  0  0  0  0  0
    7.0875   -0.9792    0.0000 Na  0  0  0  0  0 15  0  0  0  0  0  0
    2.5667   -2.5042    0.0000 C   0  0  0  0  0  0  0  0  0  0  0  0
    3.8042   -3.2292    0.0000 C   0  0  0  0  0  0  0  0  0  0  0  0
    2.1542   -3.2167    0.0000 C   0  0  0  0  0  0  0  0  0  0  0  0
    1.3292   -3.2167    0.0000 C   0  0  0  0  0  0  0  0  0  0  0  0
  2  1  1  0
  3  5  1  0
  4  2  1  0
  5  6  1  0
  6  1  2  0
  7  6  1  0
  8  2  2  0
  9  3  2  0
 10  4  1  0
 11 12  1  0
 12  4  1  0
 13 11  2  0
 15 10  1  0
 16 10  1  0
 17 15  1  0
 18 17  1  0
  4  3  1  0
M  CHG  2   7  -1  14   1
M  END
>  <ID>  (1195) 


>  <MOLENAME>  (1195) 
THIAMYLAL SODIUM

>  <therap>  (1195) 
anesthetic

>  <ref>  (1195) 
J Neurophysiol 27:408 (1964); Anesthesiology 63:A366 (1985)

>  <cas#>  (1195) 
337-47-3, 77-27-0 [thiamylal]

>  <source>  (1195) 
synthetic

>  <status>  (1195) 
USP-XXII, JAN

>  <tradename>  (1195) 
SURITAL

>  <SMILES>  (1195) 
C=CCC1(C(C)CCC)C(=O)N=C(S)NC1=O

>  <standardized_failed>  (1195) 
False

$$$$

     RDKit          2D

 32 33  0  0  0  0  0  0  0  0999 V2000
    2.8292   -2.5042    0.0000 N   0  0  0  0  0  0  0  0  0  0  0  0
    3.6292   -2.3667    0.0000 C   0  0  0  0  0  0  0  0  0  0  0  0
    2.3292   -2.0167    0.0000 C   0  0  0  0  0  0  0  0  0  0  0  0
    4.0125   -1.6125    0.0000 C   0  0  0  0  0  0  0  0  0  0  0  0
    4.8375   -1.6292    0.0000 N   0  0  0  0  0  0  0  0  0  0  0  0
    2.5792   -3.2917    0.0000 C   0  0  0  0  0  0  0  0  0  0  0  0
    6.0792   -0.9292    0.0000 C   0  0  0  0  0  0  0  0  0  0  0  0
    5.2542   -0.9167    0.0000 C   0  0  0  0  0  0  0  0  0  0  0  0
    1.7750   -3.4667    0.0000 C   0  0  0  0  0  0  0  0  0  0  0  0
    4.1167   -3.0292    0.0000 O   0  0  0  0  0  0  0  0  0  0  0  0
    2.3292   -1.1875    0.0000 C   0  0  0  0  0  0  0  0  0  0  0  0
    3.6417   -0.8375    0.0000 C   0  0  0  0  0  0  0  0  0  0  0  0
    6.5042   -0.2167    0.0000 O   0  0  0  0  0  0  0  0  0  0  0  0
    1.2167   -2.8625    0.0000 O   0  0  0  0  0  0  0  0  0  0  0  0
    2.8417   -0.6875    0.0000 C   0  0  0  0  0  0  0  0  0  0  0  0
    4.8542   -0.2000    0.0000 C   0  0  0  0  0  0  0  0  0  0  0  0
    6.4875   -1.6542    0.0000 O   0  0  0  0  0  0  0  0  0  0  0  0
    1.5250   -4.2542    0.0000 O   0  0  0  0  0  0  0  0  0  0  0  0
    5.2792    0.5083    0.0000 C   0  0  0  0  0  0  0  0  0  0  0  0
    8.0417   -1.5292    0.0000 Cl  0  0  0  0  0  0  0  0  0  0  0  0
    4.8792    1.2333    0.0000 C   0  0  0  0  0  0  0  0  0  0  0  0
    1.6125   -2.4292    0.0000 C   0  0  0  0  0  0  0  0  0  0  0  0
    1.6125   -0.7750    0.0000 C   0  0  0  0  0  0  0  0  0  0  0  0
    6.0625   -2.3625    0.0000 C   0  0  0  0  0  0  0  0  0  0  0  0
    4.0542    1.2458    0.0000 C   0  0  0  0  0  0  0  0  0  0  0  0
    5.3042    1.9375    0.0000 C   0  0  0  0  0  0  0  0  0  0  0  0
    0.9000   -2.0167    0.0000 C   0  0  0  0  0  0  0  0  0  0  0  0
    6.4625   -3.0792    0.0000 C   0  0  0  0  0  0  0  0  0  0  0  0
    0.9000   -1.1875    0.0000 C   0  0  0  0  0  0  0  0  0  0  0  0
    3.6542    1.9583    0.0000 C   0  0  0  0  0  0  0  0  0  0  0  0
    4.9042    2.6583    0.0000 C   0  0  0  0  0  0  0  0  0  0  0  0
    4.0792    2.6708    0.0000 C   0  0  0  0  0  0  0  0  0  0  0  0
  2  1  1  0
  3  1  1  0
  4  2  1  0
  4  5  1  6
  6  1  1  0
  8  7  1  0
  8  5  1  0
  9  6  1  0
 10  2  2  0
 11  3  2  0
 12  4  1  0
 13  7  2  0
 14  9  2  0
 15 11  1  0
  8 16  1  1
 17  7  1  0
 18  9  1  0
 19 16  1  0
 21 19  1  0
 22  3  1  0
 23 11  1  0
 24 17  1  0
 25 21  2  0
 26 21  1  0
 27 22  2  0
 28 24  1  0
 29 27  1  0
 30 25  1  0
 31 26  2  0
 32 30  2  0
 12 15  1  0
 23 29  2  0
 31 32  1  0
M  END
>  <ID>  (1196) 


>  <MOLENAME>  (1196) 
BENAZEPRIL HYDROCHLORIDE

>  <therap>  (1196) 
ACE inhibitor, antihypertensive

>  <ref>  (1196) 
Biopharm Drug Dispos 10:365 (1989); 49:322 (1991); Am J Cardiol 70:354 (1992)

>  <cas#>  (1196) 
86541-74-4

>  <source>  (1196) 
synthetic

>  <status>  (1196) 
USAN, INN, BAN, JAN

>  <tradename>  (1196) 
LOTENSIN

>  <SMILES>  (1196) 
CCOC(=O)[C@H](CCc1ccccc1)N[C@H]1CCc2c(cccc2)N(CC(=O)O)C1=O

>  <standardized_failed>  (1196) 
False

$$$$

     RDKit          2D

 43 47  0  0  0  0  0  0  0  0999 V2000
    6.0125   -1.0250    0.0000 C   0  0  0  0  0  0  0  0  0  0  0  0
    6.0125   -0.2000    0.0000 C   0  0  0  0  0  0  0  0  0  0  0  0
    5.2917   -1.4375    0.0000 C   0  0  0  0  0  0  0  0  0  0  0  0
    4.5750   -1.0250    0.0000 C   0  0  0  0  0  0  0  0  0  0  0  0
    7.4542   -1.8375    0.0000 C   0  0  0  0  0  0  0  0  0  0  0  0
    5.2917    0.2208    0.0000 O   0  0  0  0  0  0  0  0  0  0  0  0
    4.5792   -0.2000    0.0000 C   0  0  0  0  0  0  0  0  0  0  0  0
    7.4542   -2.6542    0.0000 C   0  0  0  0  0  0  0  0  0  0  0  0
   11.3292   -3.0000    0.0000 C   0  0  0  0  0  0  0  0  0  0  0  0
    6.7250   -1.4375    0.0000 O   0  0  0  0  0  0  0  0  0  0  0  0
    8.1792   -3.0750    0.0000 C   0  0  0  0  0  0  0  0  0  0  0  0
   12.0542   -3.4125    0.0000 C   0  0  0  0  0  0  0  0  0  0  0  0
    8.1792   -1.4167    0.0000 O   0  0  0  0  0  0  0  0  0  0  0  0
   11.3292   -2.1750    0.0000 C   0  0  0  0  0  0  0  0  0  0  0  0
    8.9042   -2.6542    0.0000 C   0  0  0  0  0  0  0  0  0  0  0  0
    3.8625   -1.4375    0.0000 C   0  0  0  0  0  0  0  0  0  0  0  0
   12.0542   -1.7625    0.0000 O   0  0  0  0  0  0  0  0  0  0  0  0
    8.9042   -1.8292    0.0000 C   0  0  0  0  0  0  0  0  0  0  0  0
   12.7667   -3.0000    0.0000 C   0  0  0  0  0  0  0  0  0  0  0  0
    6.7250    0.2125    0.0000 C   0  0  0  0  0  0  0  0  0  0  0  0
   12.7667   -2.1750    0.0000 C   0  0  0  0  0  0  0  0  0  0  0  0
    3.8625    0.2125    0.0000 C   0  0  0  0  0  0  0  0  0  0  0  0
    3.1500   -1.0250    0.0000 C   0  0  0  0  0  0  0  0  0  0  0  0
    6.7250    1.0333    0.0000 C   0  0  0  0  0  0  0  0  0  0  0  0
    7.4375    1.4458    0.0000 C   0  0  0  0  0  0  0  0  0  0  0  0
   10.6167   -1.7625    0.0000 O   0  0  0  0  0  0  0  0  0  0  0  0
    5.2875   -2.2625    0.0000 O   0  0  0  0  0  0  0  0  0  0  0  0
    3.1500   -0.2000    0.0000 C   0  0  0  0  0  0  0  0  0  0  0  0
    9.7542   -1.3417    0.0000 C   0  0  0  0  0  0  0  0  0  0  0  0
    8.1542    1.0333    0.0000 C   0  0  0  0  0  0  0  0  0  0  0  0
    7.4375   -0.2042    0.0000 C   0  0  0  0  0  0  0  0  0  0  0  0
    8.1500    0.2000    0.0000 C   0  0  0  0  0  0  0  0  0  0  0  0
    6.7417   -3.0750    0.0000 O   0  0  0  0  0  0  0  0  0  0  0  0
   10.6167   -3.4125    0.0000 O   0  0  0  0  0  0  0  0  0  0  0  0
    8.1792   -3.9000    0.0000 O   0  0  0  0  0  0  0  0  0  0  0  0
   12.0542   -4.2417    0.0000 O   0  0  0  0  0  0  0  0  0  0  0  0
    3.8625   -2.2625    0.0000 O   0  0  0  0  0  0  0  0  0  0  0  0
    9.6167   -3.0750    0.0000 O   0  0  0  0  0  0  0  0  0  0  0  0
   13.4792   -3.4125    0.0000 O   0  0  0  0  0  0  0  0  0  0  0  0
    7.4375    2.2708    0.0000 O   0  0  0  0  0  0  0  0  0  0  0  0
    8.8750    1.4375    0.0000 O   0  0  0  0  0  0  0  0  0  0  0  0
    2.4375    0.2125    0.0000 O   0  0  0  0  0  0  0  0  0  0  0  0
   13.4792   -1.7625    0.0000 C   0  0  0  0  0  0  0  0  0  0  0  0
  2  1  2  0
  3  1  1  0
  4  3  1  0
  5 10  1  0
  6  2  1  0
  7  4  2  0
  8  5  1  0
  9 14  1  0
 10  1  1  0
 11  8  1  0
 12  9  1  0
 13  5  1  0
 14 26  1  6
 15 18  1  0
 16  4  1  0
 17 14  1  0
 18 13  1  0
 19 21  1  0
 20  2  1  0
 21 17  1  0
 22  7  1  0
 23 16  2  0
 24 20  2  0
 25 24  1  0
 26 29  1  0
 27  3  2  0
 28 23  1  0
 18 29  1  6
 30 32  1  0
 31 20  1  0
 32 31  2  0
  8 33  1  1
  9 34  1  1
 11 35  1  6
 12 36  1  1
 37 16  1  0
 15 38  1  1
 19 39  1  6
 40 25  1  0
 41 30  1  0
 42 28  1  0
 21 43  1  1
  7  6  1  0
 11 15  1  0
 22 28  2  0
 25 30  2  0
 12 19  1  0
M  END
>  <ID>  (1197) 


>  <MOLENAME>  (1197) 
RUTIN

>  <therap>  (1197) 
vascular protectant

>  <ref>  (1197) 
J Am Pharm Assoc 39:557 (1950); Anal Profiles Drug Subs 12:623 (1983)

>  <cas#>  (1197) 
153-18-4

>  <source>  (1197) 
Ruta graveolens, widespread in plants

>  <status>  (1197) 
NF-XI, INN, BAN, JAN

>  <tradename>  (1197) 
BIRUTAN

>  <SMILES>  (1197) 
C[C@@H]1O[C@@H](OC[C@H]2OC(Oc3c(-c4cc(O)c(O)cc4)oc4c(c(O)cc(O)c4)c3=O)[C@H](O)[C@@H](O)[C@@H]2O)[C@H](O)[C@H](O)[C@H]1O

>  <standardized_failed>  (1197) 
False

$$$$

     RDKit          2D

 23 25  0  0  0  0  0  0  0  0999 V2000
    2.4250   -0.8083    0.0000 N   0  0  0  0  0  0  0  0  0  0  0  0
    1.7125   -0.3958    0.0000 C   0  0  0  0  0  0  0  0  0  0  0  0
    3.0375   -0.2583    0.0000 N   0  0  0  0  0  0  0  0  0  0  0  0
    2.4292   -1.6375    0.0000 C   0  0  0  0  0  0  0  0  0  0  0  0
    1.8833    0.4083    0.0000 C   0  0  0  0  0  0  0  0  0  0  0  0
    1.0000   -0.8125    0.0000 N   0  0  0  0  0  0  0  0  0  0  0  0
    2.7042    0.4917    0.0000 C   0  0  0  0  0  0  0  0  0  0  0  0
    3.1458   -2.0417    0.0000 C   0  0  0  0  0  0  0  0  0  0  0  0
    3.8667   -4.1042    0.0000 N   0  0  0  0  0  0  0  0  0  0  0  0
    1.3333    1.0208    0.0000 C   0  0  0  0  0  0  0  0  0  0  0  0
    3.8625   -3.2792    0.0000 C   0  0  0  0  0  0  0  0  0  0  0  0
    3.1500   -4.5208    0.0000 C   0  0  0  0  0  0  0  0  0  0  0  0
    0.7417    1.6083    0.0000 N   0  0  0  0  0  0  0  0  0  0  0  0
    1.7125   -2.0500    0.0000 C   0  0  0  0  0  0  0  0  0  0  0  0
    3.1458   -2.8708    0.0000 C   0  0  0  0  0  0  0  0  0  0  0  0
    1.0000   -1.6375    0.0000 C   0  0  0  0  0  0  0  0  0  0  0  0
    3.1542   -5.3458    0.0000 O   0  0  0  0  0  0  0  0  0  0  0  0
    3.8542   -1.6292    0.0000 C   0  0  0  0  0  0  0  0  0  0  0  0
    4.5750   -2.8667    0.0000 C   0  0  0  0  0  0  0  0  0  0  0  0
    4.5792   -4.5167    0.0000 C   0  0  0  0  0  0  0  0  0  0  0  0
    2.4375   -4.1083    0.0000 C   0  0  0  0  0  0  0  0  0  0  0  0
    4.5708   -2.0375    0.0000 C   0  0  0  0  0  0  0  0  0  0  0  0
    4.5833   -5.3417    0.0000 C   0  0  0  0  0  0  0  0  0  0  0  0
  2  1  1  0
  3  1  1  0
  4  1  1  0
  5  2  2  0
  6  2  1  0
  7  3  2  0
  8  4  1  0
  9 11  1  0
 10  5  1  0
 11 15  2  0
 12  9  1  0
 13 10  3  0
 14  4  2  0
 15  8  1  0
 16  6  2  0
 17 12  2  0
 18  8  2  0
 19 11  1  0
 20  9  1  0
 21 12  1  0
 22 18  1  0
 23 20  1  0
  5  7  1  0
 14 16  1  0
 22 19  2  0
M  END
>  <ID>  (1198) 


>  <MOLENAME>  (1198) 
ZALEPLON

>  <therap>  (1198) 
sedative, hypnotic

>  <ref>  (1198) 
Eur J Clin Pharmacol 45:313 (1993); J Clin Pharmacol 34:335 (1994); Expert Opin Invest Drugs 9:841 (2000); J Clin Psychiatry 4:38 (2002)

>  <cas#>  (1198) 
151319-34-5

>  <source>  (1198) 
synthetic; CL-284846, L-846, LJC-10846, ZAL-846

>  <status>  (1198) 
USAN, INN, BAN

>  <tradename>  (1198) 
SONATA

>  <SMILES>  (1198) 
CCN(C(C)=O)c1cc(-c2ccnc3c(C#N)cnn23)ccc1

>  <standardized_failed>  (1198) 
False

$$$$

     RDKit          2D

 23 27  0  0  0  0  0  0  0  0999 V2000
    7.3958   -0.9375    0.0000 N   0  0  0  0  0  0  0  0  0  0  0  0
    8.0792   -0.4708    0.0000 C   0  0  0  0  0  0  0  0  0  0  0  0
    6.6167   -0.6625    0.0000 C   0  0  0  0  0  0  0  0  0  0  0  0
    8.7292   -0.9708    0.0000 C   0  0  0  0  0  0  0  0  0  0  0  0
    5.2125   -0.9208    0.0000 C   0  0  0  0  0  0  0  0  0  0  0  0
    8.8375   -0.1583    0.0000 C   0  0  0  0  0  0  0  0  0  0  0  0
    7.6292   -1.7292    0.0000 C   0  0  0  0  0  0  0  0  0  0  0  0
    5.9875   -1.1958    0.0000 C   0  0  0  0  0  0  0  0  0  0  0  0
    4.1458    0.2208    0.0000 C   0  0  0  0  0  0  0  0  0  0  0  0
    8.4542   -1.7500    0.0000 C   0  0  0  0  0  0  0  0  0  0  0  0
    7.1292   -2.3833    0.0000 C   0  0  0  0  0  0  0  0  0  0  0  0
    4.9542   -0.1250    0.0000 C   0  0  0  0  0  0  0  0  0  0  0  0
    6.7125   -3.0917    0.0000 N   0  0  0  0  0  0  0  0  0  0  0  0
    5.0500   -1.7792    0.0000 C   0  0  0  0  0  0  0  0  0  0  0  0
    4.4625   -1.1042    0.0000 C   0  0  0  0  0  0  0  0  0  0  0  0
    6.4667    0.1500    0.0000 O   0  0  0  0  0  0  0  0  0  0  0  0
    3.9583   -0.7167    0.0000 C   0  0  0  0  0  0  0  0  0  0  0  0
    3.9583   -1.9958    0.0000 C   0  0  0  0  0  0  0  0  0  0  0  0
    2.1458   -0.3750    0.0000 C   0  0  0  0  0  0  0  0  0  0  0  0
    3.5208   -0.2792    0.0000 C   0  0  0  0  0  0  0  0  0  0  0  0
    3.5208   -1.1875    0.0000 C   0  0  0  0  0  0  0  0  0  0  0  0
    6.1375   -2.0083    0.0000 N   0  0  0  0  0  0  0  0  0  0  0  0
    4.0208    1.0625    0.0000 O   0  0  0  0  0  0  0  0  0  0  0  0
  2  1  1  0
  3  1  1  0
  4  2  1  0
  5  8  1  0
  2  6  1  1
  7  1  1  0
  8  3  1  0
  9 12  1  0
 10  7  1  0
  7 11  1  1
  5 12  1  1
 13 11  3  0
 14  5  1  0
 15  5  1  0
 16  3  2  0
 17 15  1  0
 18 14  1  0
 19  9  1  0
 20  9  1  0
 21 18  1  0
  8 22  1  1
  9 23  1  1
  4  6  1  1
  4 10  1  0
 19 18  1  0
 20 17  1  0
 17 21  1  0
M  END
>  <ID>  (1199) 


>  <MOLENAME>  (1199) 
SAXAGLIPTIN

>  <therap>  (1199) 
antidiabetic, dipeptidyl peptidase–4 inhibitor

>  <ref>  (1199) 
Diabetes Care 32:1649 (2009); Br J Diabetes Vasc Disease 10:14 (2010)

>  <cas#>  (1199) 
945667-22-1

>  <source>  (1199) 
synthsis; BMS-477118

>  <status>  (1199) 
USAN, INN

>  <tradename>  (1199) 
ONGLYZA

>  <SMILES>  (1199) 
N#C[C@@H]1C[C@@H]2C[C@@H]2N1C(=O)[C@@H](N)[C@]12CC3CC(C[C@@](O)(C3)C1)C2

>  <standardized_failed>  (1199) 
False

$$$$

     RDKit          2D

  8  8  0  0  0  0  0  0  0  0999 V2000
    2.1292   -1.6167    0.0000 C   0  0  0  0  0  0  0  0  0  0  0  0
    3.6417   -1.6167    0.0000 C   0  0  0  0  0  0  0  0  0  0  0  0
    1.3792   -1.6167    0.0000 Cl  0  0  0  0  0  0  0  0  0  0  0  0
    2.5042   -0.9667    0.0000 C   0  0  0  0  0  0  0  0  0  0  0  0
    2.5042   -2.2667    0.0000 C   0  0  0  0  0  0  0  0  0  0  0  0
    3.2625   -2.2667    0.0000 C   0  0  0  0  0  0  0  0  0  0  0  0
    3.2625   -0.9667    0.0000 C   0  0  0  0  0  0  0  0  0  0  0  0
    4.3917   -1.6167    0.0000 O   0  0  0  0  0  0  0  0  0  0  0  0
  2  6  1  0
  3  1  1  0
  4  1  2  0
  5  1  1  0
  6  5  2  0
  7  4  1  0
  8  2  1  0
  7  2  2  0
M  END
>  <ID>  (1200) 


>  <MOLENAME>  (1200) 
PARACHLOROPHENOL

>  <therap>  (1200) 
topical antibacterial (topical)

>  <ref>  (1200) 
Am J Med Sci 111:213 (1896); JAMA XXVII:728 (1896)

>  <cas#>  (1200) 
106-48-9

>  <source>  (1200) 
synthetic

>  <status>  (1200) 
USP

>  <tradename>  (1200) 
nan

>  <SMILES>  (1200) 
Oc1ccc(Cl)cc1

>  <standardized_failed>  (1200) 
False

$$$$

     RDKit          2D

 22 24  0  0  0  0  0  0  0  0999 V2000
    2.0667   -1.7250    0.0000 N   0  0  0  0  0  0  0  0  0  0  0  0
    2.4750   -0.4583    0.0000 N   0  0  0  0  0  0  0  0  0  0  0  0
    1.3958   -1.2458    0.0000 N   0  0  0  0  0  0  0  0  0  0  0  0
    2.7333   -1.2417    0.0000 C   0  0  0  0  0  0  0  0  0  0  0  0
   -1.5083   -4.6167    0.0000 N   0  0  0  0  0  0  0  0  0  0  0  0
    5.6417   -4.6000    0.0000 N   0  0  0  0  0  0  0  0  0  0  0  0
    1.6500   -0.4583    0.0000 C   0  0  0  0  0  0  0  0  0  0  0  0
    2.0708   -2.5500    0.0000 C   0  0  0  0  0  0  0  0  0  0  0  0
    4.9333   -4.1875    0.0000 C   0  0  0  0  0  0  0  0  0  0  0  0
   -0.7875   -4.2083    0.0000 C   0  0  0  0  0  0  0  0  0  0  0  0
    2.7875   -2.9583    0.0000 C   0  0  0  0  0  0  0  0  0  0  0  0
    1.3583   -2.9667    0.0000 C   0  0  0  0  0  0  0  0  0  0  0  0
    0.6417   -2.5542    0.0000 C   0  0  0  0  0  0  0  0  0  0  0  0
    2.7875   -3.7833    0.0000 C   0  0  0  0  0  0  0  0  0  0  0  0
    3.4917   -2.5417    0.0000 C   0  0  0  0  0  0  0  0  0  0  0  0
    1.3583   -3.7958    0.0000 C   0  0  0  0  0  0  0  0  0  0  0  0
   -0.0708   -3.7958    0.0000 C   0  0  0  0  0  0  0  0  0  0  0  0
    4.2167   -3.7750    0.0000 C   0  0  0  0  0  0  0  0  0  0  0  0
   -0.0708   -2.9667    0.0000 C   0  0  0  0  0  0  0  0  0  0  0  0
    4.2083   -2.9458    0.0000 C   0  0  0  0  0  0  0  0  0  0  0  0
    0.6417   -4.2083    0.0000 C   0  0  0  0  0  0  0  0  0  0  0  0
    3.5000   -4.1917    0.0000 C   0  0  0  0  0  0  0  0  0  0  0  0
  2  4  2  0
  3  1  1  0
  4  1  1  0
  5 10  3  0
  6  9  3  0
  7  3  2  0
  8  1  1  0
  9 18  1  0
 10 17  1  0
 11  8  1  0
 12  8  1  0
 13 12  2  0
 14 11  2  0
 15 11  1  0
 16 12  1  0
 17 21  1  0
 18 22  2  0
 19 13  1  0
 20 15  2  0
 21 16  2  0
 22 14  1  0
  7  2  1  0
 20 18  1  0
 17 19  2  0
M  END
>  <ID>  (1201) 


>  <MOLENAME>  (1201) 
LETROZOLE

>  <therap>  (1201) 
antineoplastic

>  <ref>  (1201) 
J Steroid Biochem Mol Biol 37:1021 (1990); 44:687 (1993); Cancer 75:2132 (1995)

>  <cas#>  (1201) 
112809-51-5

>  <source>  (1201) 
synthetic

>  <status>  (1201) 
USP, INN, BAN

>  <tradename>  (1201) 
FEMARA

>  <SMILES>  (1201) 
N#Cc1ccc(C(c2ccc(C#N)cc2)n2cncn2)cc1

>  <standardized_failed>  (1201) 
False

$$$$

     RDKit          2D

 22 23  0  0  0  0  0  0  0  0999 V2000
    3.7875   -4.1625    0.0000 N   0  0  0  0  0  0  0  0  0  0  0  0
    5.0917   -3.8833    0.0000 N   0  0  0  0  0  0  0  0  0  0  0  0
    5.0042   -4.7083    0.0000 N   0  0  0  0  0  0  0  0  0  0  0  0
    6.5208   -1.4042    0.0000 C   0  0  0  0  0  0  0  0  0  0  0  0
    5.0917   -1.4042    0.0000 C   0  0  0  0  0  0  0  0  0  0  0  0
    8.6542   -0.1542    0.0000 N   0  0  0  0  0  0  0  0  0  0  0  0
    2.9417   -0.1667    0.0000 N   0  0  0  0  0  0  0  0  0  0  0  0
    4.2000   -4.8792    0.0000 C   0  0  0  0  0  0  0  0  0  0  0  0
    4.3375   -3.5500    0.0000 C   0  0  0  0  0  0  0  0  0  0  0  0
    5.8042   -0.9917    0.0000 C   0  0  0  0  0  0  0  0  0  0  0  0
    4.3792   -0.9958    0.0000 C   0  0  0  0  0  0  0  0  0  0  0  0
    7.2333   -0.9875    0.0000 C   0  0  0  0  0  0  0  0  0  0  0  0
    3.6625   -0.5792    0.0000 C   0  0  0  0  0  0  0  0  0  0  0  0
    7.9417   -0.5667    0.0000 C   0  0  0  0  0  0  0  0  0  0  0  0
    5.8042   -2.6458    0.0000 C   0  0  0  0  0  0  0  0  0  0  0  0
    6.5208   -2.2333    0.0000 C   0  0  0  0  0  0  0  0  0  0  0  0
    5.0917   -2.2333    0.0000 C   0  0  0  0  0  0  0  0  0  0  0  0
    5.8042   -3.4708    0.0000 C   0  0  0  0  0  0  0  0  0  0  0  0
    7.2292   -0.1625    0.0000 C   0  0  0  0  0  0  0  0  0  0  0  0
    3.6625   -1.4083    0.0000 C   0  0  0  0  0  0  0  0  0  0  0  0
    4.3792   -0.1708    0.0000 C   0  0  0  0  0  0  0  0  0  0  0  0
    7.9500   -1.3958    0.0000 C   0  0  0  0  0  0  0  0  0  0  0  0
  2  9  1  0
  3  8  2  0
  4 16  2  0
  5 17  1  0
  6 14  3  0
  7 13  3  0
  8  1  1  0
  9  1  2  0
 10  5  2  0
 11  5  1  0
 12  4  1  0
 13 11  1  0
 14 12  1  0
 15 18  1  0
 16 15  1  0
 17 15  2  0
 18  2  1  0
 19 12  1  0
 20 11  1  0
 21 11  1  0
 22 12  1  0
  2  3  1  0
 10  4  1  0
M  END
>  <ID>  (1202) 


>  <MOLENAME>  (1202) 
ANASTROZOLE

>  <therap>  (1202) 
antineoplastic

>  <ref>  (1202) 
Breast Cancer Res Treat 30:103 (1994); J Steroid Biochem Mol Biol 53:175 (1995); Cancer 79:730 (1997)

>  <cas#>  (1202) 
120511-73-1

>  <source>  (1202) 
synthetic; ICI-D1033, ZD-1033

>  <status>  (1202) 
USAN, INN, BAN

>  <tradename>  (1202) 
ARIMIDEX

>  <SMILES>  (1202) 
CC(C)(C#N)c1cc(C(C)(C)C#N)cc(Cn2cncn2)c1

>  <standardized_failed>  (1202) 
False

$$$$

     RDKit          2D

 15 15  0  0  0  0  0  0  0  0999 V2000
    6.4125   -1.7083    0.0000 C   0  0  0  0  0  0  0  0  0  0  0  0
    6.2833   -0.8958    0.0000 C   0  0  0  0  0  0  0  0  0  0  0  0
    5.0917   -1.5000    0.0000 Pt  0  0  0  0  0  2  0  0  0  0  0  0
    5.6750   -2.0833    0.0000 O   0  0  0  0  0  0  0  0  0  0  0  0
    5.4667   -0.7667    0.0000 O   0  0  0  0  0  0  0  0  0  0  0  0
    6.8667   -0.3125    0.0000 O   0  0  0  0  0  0  0  0  0  0  0  0
    7.1458   -2.0833    0.0000 O   0  0  0  0  0  0  0  0  0  0  0  0
    3.8250   -1.0917    0.0000 C   0  0  0  0  0  0  0  0  0  0  0  0
    3.8250   -1.9125    0.0000 C   0  0  0  0  0  0  0  0  0  0  0  0
    4.6083   -2.1667    0.0000 N   0  0  0  0  0  0  0  0  0  0  0  0
    4.6083   -0.8375    0.0000 N   0  0  0  0  0  0  0  0  0  0  0  0
    3.1125   -2.3250    0.0000 C   0  0  0  0  0  0  0  0  0  0  0  0
    3.1125   -0.6750    0.0000 C   0  0  0  0  0  0  0  0  0  0  0  0
    2.4042   -1.0917    0.0000 C   0  0  0  0  0  0  0  0  0  0  0  0
    2.4042   -1.9167    0.0000 C   0  0  0  0  0  0  0  0  0  0  0  0
  2  1  1  0
  3  4  1  0
  4  1  1  0
  5  2  1  0
  6  2  2  0
  7  1  2  0
  9  8  1  0
 10  9  1  0
  8 11  1  1
 12  9  1  0
  8 13  1  0
 14 13  1  0
 15 12  1  0
  3  5  1  0
 15 14  1  0
M  END
>  <ID>  (1203) 


>  <MOLENAME>  (1203) 
OXALIPLATIN

>  <therap>  (1203) 
antineoplastic

>  <ref>  (1203) 
Future Oncol. (2009), 5(1), 33-42; J. Med. Chem. (1978), 21(12), 1315-18; J. Clin. Hematol. Oncol. (1977), 7(1), 197-209

>  <cas#>  (1203) 
61825-94-3

>  <source>  (1203) 
synthetic; SR-96669, RP-54780

>  <status>  (1203) 
USAN, INN, BAN

>  <tradename>  (1203) 
ELOXATIN

>  <SMILES>  (1203) 
NC1CCCC[C@H]1N.O=C1O[Pt]OC1=O

>  <standardized_failed>  (1203) 
True

$$$$

     RDKit          2D

 11 12  0  0  0  0  0  0  0  0999 V2000
    3.8958   -1.4333    0.0000 C   0  0  0  0  0  0  0  0  0  0  0  0
    3.9000   -2.2583    0.0000 C   0  0  0  0  0  0  0  0  0  0  0  0
    3.1792   -1.0208    0.0000 C   0  0  0  0  0  0  0  0  0  0  0  0
    3.1792   -2.6750    0.0000 C   0  0  0  0  0  0  0  0  0  0  0  0
    2.4667   -1.4375    0.0000 C   0  0  0  0  0  0  0  0  0  0  0  0
    2.4667   -2.2625    0.0000 C   0  0  0  0  0  0  0  0  0  0  0  0
    3.1750   -0.1958    0.0000 Cl  0  0  0  0  0  0  0  0  0  0  0  0
    3.1833   -3.5000    0.0000 O   0  0  0  0  0  0  0  0  0  0  0  0
    4.6875   -2.5083    0.0000 C   0  0  0  0  0  0  0  0  0  0  0  0
    4.6792   -1.1708    0.0000 C   0  0  0  0  0  0  0  0  0  0  0  0
    5.1708   -1.8375    0.0000 C   0  0  0  0  0  0  0  0  0  0  0  0
  2  1  1  0
  3  1  2  0
  4  2  2  0
  5  3  1  0
  6  4  1  0
  7  3  1  0
  8  4  1  0
  9  2  1  0
 10  1  1  0
 11 10  1  0
 11  9  1  0
  6  5  2  0
M  END
>  <ID>  (1204) 


>  <MOLENAME>  (1204) 
CHLORINDANOL

>  <therap>  (1204) 
antiseptic, spermaticide

>  <ref>  (1204) 
J Pharm Sci  48:212 (1959); Arzneim Forsch 20:548 (1970)

>  <cas#>  (1204) 
145-94-8

>  <source>  (1204) 
synthetic; NSC-158567

>  <status>  (1204) 
USAN, INN

>  <tradename>  (1204) 
nan

>  <SMILES>  (1204) 
Oc1c2CCCc2c(Cl)cc1

>  <standardized_failed>  (1204) 
False

$$$$

     RDKit          2D

 34 35  0  0  0  0  0  0  0  0999 V2000
   -0.4708   -2.4542    0.0000 C   0  0  0  0  0  0  0  0  0  0  0  0
   -0.4708   -3.2792    0.0000 C   0  0  0  0  0  0  0  0  0  0  0  0
    4.0292   -0.0917    0.0000 C   0  0  0  0  0  0  0  0  0  0  0  0
    3.3167   -2.1542    0.0000 C   0  0  0  0  0  0  0  0  0  0  0  0
    4.0292   -0.9167    0.0000 C   0  0  0  0  0  0  0  0  0  0  0  0
    3.3167   -1.3292    0.0000 C   0  0  0  0  0  0  0  0  0  0  0  0
    4.0292   -2.5667    0.0000 C   0  0  0  0  0  0  0  0  0  0  0  0
    4.7417   -1.3292    0.0000 C   0  0  0  0  0  0  0  0  0  0  0  0
   -1.1875   -2.0417    0.0000 O   0  0  0  0  0  0  0  0  0  0  0  0
    0.2417   -3.6917    0.0000 O   0  0  0  0  0  0  0  0  0  0  0  0
    4.7417    0.3208    0.0000 O   0  0  0  0  0  0  0  0  0  0  0  0
    6.2125   -1.2500    0.0000 O   0  0  0  0  0  0  0  0  0  0  0  0
    4.0250   -3.3917    0.0000 C   0  0  0  0  0  0  0  0  0  0  0  0
    3.3167    0.3208    0.0000 O   0  0  0  0  0  0  0  0  0  0  0  0
   -1.1875   -3.6917    0.0000 O   0  0  0  0  0  0  0  0  0  0  0  0
    0.2417   -2.0417    0.0000 O   0  0  0  0  0  0  0  0  0  0  0  0
    5.4625   -0.9167    0.0000 C   0  0  0  0  0  0  0  0  0  0  0  0
    1.1792   -0.0917    0.0000 N   0  0  0  0  0  0  0  0  0  0  0  0
    2.6042   -2.5667    0.0000 C   0  0  0  0  0  0  0  0  0  0  0  0
    2.6042   -0.0917    0.0000 C   0  0  0  0  0  0  0  0  0  0  0  0
    2.6042   -3.3917    0.0000 C   0  0  0  0  0  0  0  0  0  0  0  0
    4.7417   -2.1542    0.0000 C   0  0  0  0  0  0  0  0  0  0  0  0
    1.8917    0.3208    0.0000 C   0  0  0  0  0  0  0  0  0  0  0  0
    6.7667   -0.6375    0.0000 C   0  0  0  0  0  0  0  0  0  0  0  0
    3.3167   -3.8042    0.0000 C   0  0  0  0  0  0  0  0  0  0  0  0
    0.4667    0.3208    0.0000 C   0  0  0  0  0  0  0  0  0  0  0  0
    1.1792   -0.9167    0.0000 C   0  0  0  0  0  0  0  0  0  0  0  0
    4.7375   -3.8042    0.0000 C   0  0  0  0  0  0  0  0  0  0  0  0
    5.5417   -0.0917    0.0000 C   0  0  0  0  0  0  0  0  0  0  0  0
   -0.2458   -0.0917    0.0000 C   0  0  0  0  0  0  0  0  0  0  0  0
    0.4625   -1.3292    0.0000 C   0  0  0  0  0  0  0  0  0  0  0  0
    6.3542    0.0833    0.0000 C   0  0  0  0  0  0  0  0  0  0  0  0
    5.4542   -2.5750    0.0000 C   0  0  0  0  0  0  0  0  0  0  0  0
    5.4542   -3.4000    0.0000 C   0  0  0  0  0  0  0  0  0  0  0  0
  2  1  1  0
  4  6  1  0
  5  3  1  0
  6  5  1  0
  7  4  1  0
  8  5  1  0
  9  1  2  0
 10  2  2  0
 11  3  2  0
 12 17  1  0
 13  7  2  0
 14  3  1  0
 15  2  1  0
 16  1  1  0
 17  8  1  0
 18 23  1  0
 19  4  2  0
 20 14  1  0
 21 19  1  0
 22  7  1  0
 23 20  1  0
 24 12  1  0
 25 21  2  0
 26 18  1  0
 27 18  1  0
 28 13  1  0
 29 17  1  0
 30 26  1  0
 31 27  1  0
 32 29  1  0
 33 22  2  0
 34 33  1  0
 24 32  1  0
 25 13  1  0
 28 34  2  0
M  END
>  <ID>  (1205) 


>  <MOLENAME>  (1205) 
NAFRONYL OXALATE

>  <therap>  (1205) 
vasodilator

>  <ref>  (1205) 
Drugs Aging (2005), 22(11), 967-977; Drugs Aging (1996), 8(4), 299-322; Bull. Soc. Chim. Fr. (1966), (6), 1838-46

>  <cas#>  (1205) 
3200-06-4, 31329-57-4 [nafronyl]

>  <source>  (1205) 
synthetic; EU-1806, LS-121

>  <status>  (1205) 
USAN, INN, BAN

>  <tradename>  (1205) 
PRAXILENE

>  <SMILES>  (1205) 
CCN(CC)CCOC(=O)C(Cc1cccc2c1cccc2)CC1CCCO1

>  <standardized_failed>  (1205) 
False

$$$$

     RDKit          2D

 21 22  0  0  0  0  0  0  0  0999 V2000
    2.9208   -3.3667    0.0000 N   0  0  0  0  0  0  0  0  0  0  0  0
    3.6375   -3.7792    0.0000 C   0  0  0  0  0  0  0  0  0  0  0  0
    2.2083   -3.7792    0.0000 N   0  0  0  0  0  0  0  0  0  0  0  0
    7.9042   -2.1167    0.0000 C   0  0  0  0  0  0  0  0  0  0  0  0
    2.2083   -4.6083    0.0000 C   0  0  0  0  0  0  0  0  0  0  0  0
    7.1917   -2.5292    0.0000 N   0  0  0  0  0  0  0  0  0  0  0  0
    9.3292   -2.9375    0.0000 N   0  0  0  0  0  0  0  0  0  0  0  0
    7.9000   -0.4667    0.0000 N   0  0  0  0  0  0  0  0  0  0  0  0
    3.6375   -4.6083    0.0000 C   0  0  0  0  0  0  0  0  0  0  0  0
    8.6167   -2.5250    0.0000 C   0  0  0  0  0  0  0  0  0  0  0  0
    7.9042   -1.2917    0.0000 C   0  0  0  0  0  0  0  0  0  0  0  0
    4.3458   -3.3625    0.0000 C   0  0  0  0  0  0  0  0  0  0  0  0
    2.9208   -5.0208    0.0000 C   0  0  0  0  0  0  0  0  0  0  0  0
    6.4792   -2.1167    0.0000 N   0  0  0  0  0  0  0  0  0  0  0  0
    1.4917   -5.0208    0.0000 O   0  0  0  0  0  0  0  0  0  0  0  0
    5.0625   -3.7750    0.0000 C   0  0  0  0  0  0  0  0  0  0  0  0
    4.3417   -2.5417    0.0000 C   0  0  0  0  0  0  0  0  0  0  0  0
    5.7708   -2.5333    0.0000 C   0  0  0  0  0  0  0  0  0  0  0  0
    5.0500   -2.1250    0.0000 C   0  0  0  0  0  0  0  0  0  0  0  0
    5.7750   -3.3625    0.0000 C   0  0  0  0  0  0  0  0  0  0  0  0
    4.3542   -5.0208    0.0000 C   0  0  0  0  0  0  0  0  0  0  0  0
  2  1  2  0
  3  1  1  0
  4  6  2  0
  5  3  1  0
  6 14  1  0
  7 10  3  0
  8 11  3  0
  9  2  1  0
 10  4  1  0
 11  4  1  0
 12  2  1  0
 13  5  1  0
 14 18  1  0
 15  5  2  0
 16 12  2  0
 17 12  1  0
 18 20  2  0
 19 17  2  0
 20 16  1  0
  9 21  1  6
  9 13  1  0
 19 18  1  0
M  END
>  <ID>  (1206) 


>  <MOLENAME>  (1206) 
LEVOSIMENDAN

>  <therap>  (1206) 
vasodilator

>  <ref>  (1206) 
Pharmacol Toxicol 74:244 (1994);Cardiovasc Drud Rev 14:286 (1996)

>  <cas#>  (1206) 
141505-33-1

>  <source>  (1206) 
synthetic; OR-1254

>  <status>  (1206) 
USAN, INN

>  <tradename>  (1206) 
SIMDAX

>  <SMILES>  (1206) 
C[C@@H]1CC(=O)NN=C1c1ccc(NN=C(C#N)C#N)cc1

>  <standardized_failed>  (1206) 
False

$$$$

     RDKit          2D

 29 30  0  0  0  0  0  0  0  0999 V2000
    3.2750   -3.0917    0.0000 S   0  0  0  0  0  0  0  0  0  0  0  0
    4.5042   -2.3792    0.0000 C   0  0  0  0  0  0  0  0  0  0  0  0
    3.6792   -2.3792    0.0000 C   0  0  0  0  0  0  0  0  0  0  0  0
    8.1917   -0.2417    0.0000 C   0  0  0  0  0  0  0  0  0  0  0  0
    4.9125   -1.6667    0.0000 C   0  0  0  0  0  0  0  0  0  0  0  0
    7.3667   -0.2458    0.0000 C   0  0  0  0  0  0  0  0  0  0  0  0
    5.7292   -1.6667    0.0000 N   0  0  0  0  0  0  0  0  0  0  0  0
    7.7750    1.8958    0.0000 N   0  0  0  0  0  0  0  0  0  0  0  0
    2.4542   -3.0958    0.0000 C   0  0  0  0  0  0  0  0  0  0  0  0
    7.3667    1.1792    0.0000 C   0  0  0  0  0  0  0  0  0  0  0  0
    6.9542    0.4625    0.0000 C   0  0  0  0  0  0  0  0  0  0  0  0
    3.9875   -3.5042    0.0000 O   0  0  0  0  0  0  0  0  0  0  0  0
    2.8542   -3.8042    0.0000 O   0  0  0  0  0  0  0  0  0  0  0  0
    6.9625   -0.9542    0.0000 C   0  0  0  0  0  0  0  0  0  0  0  0
    6.1375   -0.9583    0.0000 C   0  0  0  0  0  0  0  0  0  0  0  0
    4.4958   -0.9542    0.0000 O   0  0  0  0  0  0  0  0  0  0  0  0
    9.0167   -0.2417    0.0000 F   0  0  0  0  0  0  0  0  0  0  0  0
    8.6083   -0.9583    0.0000 F   0  0  0  0  0  0  0  0  0  0  0  0
    8.6042    0.4708    0.0000 F   0  0  0  0  0  0  0  0  0  0  0  0
    5.3292   -2.3792    0.0000 O   0  0  0  0  0  0  0  0  0  0  0  0
    2.0417   -2.3833    0.0000 C   0  0  0  0  0  0  0  0  0  0  0  0
    2.0417   -3.8083    0.0000 C   0  0  0  0  0  0  0  0  0  0  0  0
    6.1333    0.4583    0.0000 C   0  0  0  0  0  0  0  0  0  0  0  0
    5.7292   -0.2542    0.0000 C   0  0  0  0  0  0  0  0  0  0  0  0
    0.8083   -3.1000    0.0000 C   0  0  0  0  0  0  0  0  0  0  0  0
    4.7167   -3.1792    0.0000 C   0  0  0  0  0  0  0  0  0  0  0  0
    1.2167   -2.3875    0.0000 C   0  0  0  0  0  0  0  0  0  0  0  0
    1.2167   -3.8083    0.0000 C   0  0  0  0  0  0  0  0  0  0  0  0
   -0.0167   -3.1000    0.0000 F   0  0  0  0  0  0  0  0  0  0  0  0
  2  3  1  0
  3  1  1  0
  4  6  1  0
  5  2  1  0
  6 14  2  0
  7  5  1  0
  8 10  3  0
  9  1  1  0
 10 11  1  0
 11 23  2  0
 12  1  2  0
 13  1  2  0
 14 15  1  0
 15  7  1  0
 16  5  2  0
 17  4  1  0
 18  4  1  0
 19  4  1  0
 20  2  1  0
 21  9  2  0
 22  9  1  0
 23 24  1  0
 24 15  2  0
 25 28  1  0
 26  2  1  0
 27 21  1  0
 28 22  2  0
 29 25  1  0
 25 27  2  0
 11  6  1  0
M  END
>  <ID>  (1207) 


>  <MOLENAME>  (1207) 
BICALUTAMIDE

>  <therap>  (1207) 
antineoplastic

>  <ref>  (1207) 
J Med Chem 31:954 (1988); Horm Res 32 Suppl 1: 77 (1989); Suppl 3 10 (1990)

>  <cas#>  (1207) 
90357-06-5

>  <source>  (1207) 
synthetic; ICI-176334

>  <status>  (1207) 
USAN, INN, BAN

>  <tradename>  (1207) 
CASODEX

>  <SMILES>  (1207) 
CC(O)(CS(=O)(=O)c1ccc(F)cc1)C(=O)Nc1ccc(C#N)c(C(F)(F)F)c1

>  <standardized_failed>  (1207) 
False

$$$$

     RDKit          2D

  7  6  0  0  0  0  0  0  0  0999 V2000
    2.9292   -1.6792    0.0000 C   0  0  0  0  0  0  0  0  0  0  0  0
    3.6417   -1.2667    0.0000 C   0  0  0  0  0  0  0  0  0  0  0  0
    2.9292   -2.5042    0.0000 F   0  0  0  0  0  0  0  0  0  0  0  0
    2.2125   -1.2667    0.0000 F   0  0  0  0  0  0  0  0  0  0  0  0
    2.2125   -2.0917    0.0000 F   0  0  0  0  0  0  0  0  0  0  0  0
    4.3542   -1.6792    0.0000 Br  0  0  0  0  0  0  0  0  0  0  0  0
    3.6417   -0.4417    0.0000 Cl  0  0  0  0  0  0  0  0  0  0  0  0
  2  1  1  0
  3  1  1  0
  4  1  1  0
  5  1  1  0
  6  2  1  0
  7  2  1  0
M  END
>  <ID>  (1208) 


>  <MOLENAME>  (1208) 
HALOTHANE

>  <therap>  (1208) 
anesthetic

>  <ref>  (1208) 
Fed. Proc. (1969), 28(4), 1386-403; Br. J. Anaesth. (1965), 37(9), 688-705; Am. J. Health-Syst. Pharm. (2006), 63(7), 623-634

>  <cas#>  (1208) 
151-67-7

>  <source>  (1208) 
synthesis

>  <status>  (1208) 
USP, INN, BAN, JAN

>  <tradename>  (1208) 
FLUOTHANE

>  <SMILES>  (1208) 
FC(F)(F)C(Cl)Br

>  <standardized_failed>  (1208) 
False

$$$$

     RDKit          2D

 24 28  0  0  0  0  0  0  0  0999 V2000
    2.7542   -3.8167    0.0000 C   0  0  0  0  0  0  0  0  0  0  0  0
    2.0500   -4.2292    0.0000 C   0  0  0  0  0  0  0  0  0  0  0  0
    2.7625   -2.9917    0.0000 C   0  0  0  0  0  0  0  0  0  0  0  0
    2.7542   -4.6417    0.0000 O   0  0  0  0  0  0  0  0  0  0  0  0
    1.3417   -3.8167    0.0000 C   0  0  0  0  0  0  0  0  0  0  0  0
    1.3417   -2.9917    0.0000 C   0  0  0  0  0  0  0  0  0  0  0  0
    3.4750   -2.5792    0.0000 C   0  0  0  0  0  0  0  0  0  0  0  0
    4.9125   -1.7750    0.0000 C   0  0  0  0  0  0  0  0  0  0  0  0
    4.9042   -2.6000    0.0000 C   0  0  0  0  0  0  0  0  0  0  0  0
    2.0500   -2.5792    0.0000 C   0  0  0  0  0  0  0  0  0  0  0  0
    4.1792   -3.0042    0.0000 C   0  0  0  0  0  0  0  0  0  0  0  0
    3.4667   -4.2292    0.0000 C   0  0  0  0  0  0  0  0  0  0  0  0
    0.6250   -2.5792    0.0000 C   0  0  0  0  0  0  0  0  0  0  0  0
    4.2042   -1.3542    0.0000 C   0  0  0  0  0  0  0  0  0  0  0  0
   -0.0958   -2.1667    0.0000 N   0  0  0  0  0  0  0  0  0  0  0  0
    3.4792   -1.7542    0.0000 C   0  0  0  0  0  0  0  0  0  0  0  0
    4.1875   -3.8250    0.0000 C   0  0  0  0  0  0  0  0  0  0  0  0
    5.6792   -2.8625    0.0000 C   0  0  0  0  0  0  0  0  0  0  0  0
    5.6917   -1.5292    0.0000 C   0  0  0  0  0  0  0  0  0  0  0  0
    6.1667   -2.2000    0.0000 C   0  0  0  0  0  0  0  0  0  0  0  0
    0.6250   -4.2292    0.0000 O   0  0  0  0  0  0  0  0  0  0  0  0
    2.7542   -2.1667    0.0000 C   0  0  0  0  0  0  0  0  0  0  0  0
    4.9042   -0.9500    0.0000 C   0  0  0  0  0  0  0  0  0  0  0  0
    5.9042   -0.7292    0.0000 O   0  0  0  0  0  0  0  0  0  0  0  0
  2  1  1  0
  3  1  1  0
  1  4  1  0
  5  2  1  0
  6 10  1  0
  7  3  1  0
  8  9  1  0
  9 11  1  0
 10  3  1  0
 11 17  1  6
  1 12  1  1
 13  6  1  0
 14 16  1  0
 15 13  3  0
 16  7  1  0
 17 12  1  0
 18  9  1  0
 19  8  1  0
 20 18  1  0
 21  5  1  0
  3 22  1  1
  8 23  1  1
 19 24  1  1
  2  4  1  6
  7 11  1  0
  6  5  2  0
  8 14  1  0
 20 19  1  0
M  END
>  <ID>  (1209) 


>  <MOLENAME>  (1209) 
TRILOSTANE

>  <therap>  (1209) 
adrenocortical suppressant, antineoplastic, steroid biosynthesis inhibitor

>  <ref>  (1209) 
Steroids 32:257 (1978); J Steroid Biochem 21:601 (1984); Pharmaceutical Res 9:464 (1992)

>  <cas#>  (1209) 
13647-35-3

>  <source>  (1209) 
semisynthetic; WIN-24540

>  <status>  (1209) 
USAN, INN, BAN, JAN

>  <tradename>  (1209) 
MODRASTANE

>  <SMILES>  (1209) 
C[C@]12CCC3[C@@H](CC[C@@]45O[C@@H]4C(O)=C(C#N)C[C@]35C)C1CC[C@@H]2O

>  <standardized_failed>  (1209) 
False

$$$$

     RDKit          2D

  8  8  0  0  0  0  0  0  0  0999 V2000
    1.3292   -1.2417    0.0000 C   0  0  0  0  0  0  0  0  0  0  0  0
    1.3292    0.4125    0.0000 C   0  0  0  0  0  0  0  0  0  0  0  0
    0.6167   -0.0000    0.0000 C   0  0  0  0  0  0  0  0  0  0  0  0
    2.0417   -0.8292    0.0000 C   0  0  0  0  0  0  0  0  0  0  0  0
    2.0417   -0.0000    0.0000 C   0  0  0  0  0  0  0  0  0  0  0  0
    0.6167   -0.8292    0.0000 C   0  0  0  0  0  0  0  0  0  0  0  0
    1.3250    1.2375    0.0000 O   0  0  0  0  0  0  0  0  0  0  0  0
    1.3250   -2.0667    0.0000 O   0  0  0  0  0  0  0  0  0  0  0  0
  2  3  1  0
  3  6  2  0
  4  1  2  0
  5  4  1  0
  6  1  1  0
  7  2  1  0
  8  1  1  0
  2  5  2  0
M  END
>  <ID>  (1210) 


>  <MOLENAME>  (1210) 
HYDROQUINONE

>  <therap>  (1210) 
depigmentor, antioxidant

>  <ref>  (1210) 
J. Cosmet. Dermatol. (2006), 5(3), 196-203; Skin Ther. Lett. (2004), 9(6), 1-3; J. Microbiol. Biotechnol. (2010), 20(8), 1204-1209

>  <cas#>  (1210) 
123-31-9

>  <source>  (1210) 
synthetic

>  <status>  (1210) 
USP

>  <tradename>  (1210) 
SOLAQUIN FORTE

>  <SMILES>  (1210) 
Oc1ccc(O)cc1

>  <standardized_failed>  (1210) 
False

$$$$

     RDKit          2D

 24 26  0  0  0  0  0  0  0  0999 V2000
    6.4625   -3.5125    0.0000 C   0  0  0  0  0  0  0  0  0  0  0  0
    5.6792   -4.5917    0.0000 C   0  0  0  0  0  0  0  0  0  0  0  0
    6.4625   -4.3417    0.0000 C   0  0  0  0  0  0  0  0  0  0  0  0
    5.1917   -3.9292    0.0000 C   0  0  0  0  0  0  0  0  0  0  0  0
    5.6792   -3.2542    0.0000 O   0  0  0  0  0  0  0  0  0  0  0  0
    6.4625   -2.6792    0.0000 C   0  0  0  0  0  0  0  0  0  0  0  0
    4.3750   -4.0167    0.0000 C   0  0  0  0  0  0  0  0  0  0  0  0
    5.3417   -5.3500    0.0000 C   0  0  0  0  0  0  0  0  0  0  0  0
    7.1750   -2.2667    0.0000 C   0  0  0  0  0  0  0  0  0  0  0  0
    7.1750   -3.9250    0.0000 C   0  0  0  0  0  0  0  0  0  0  0  0
    4.0375   -4.7667    0.0000 C   0  0  0  0  0  0  0  0  0  0  0  0
    4.5167   -5.4375    0.0000 C   0  0  0  0  0  0  0  0  0  0  0  0
    7.8917   -2.6792    0.0000 C   0  0  0  0  0  0  0  0  0  0  0  0
    7.8917   -3.5125    0.0000 C   0  0  0  0  0  0  0  0  0  0  0  0
    6.9167   -4.9292    0.0000 O   0  0  0  0  0  0  0  0  0  0  0  0
    8.6125   -2.2625    0.0000 O   0  0  0  0  0  0  0  0  0  0  0  0
    3.8875   -3.3417    0.0000 Cl  0  0  0  0  0  0  0  0  0  0  0  0
    5.7417   -2.2542    0.0000 O   0  0  0  0  0  0  0  0  0  0  0  0
    5.8292   -6.0167    0.0000 O   0  0  0  0  0  0  0  0  0  0  0  0
    3.2125   -4.8625    0.0000 O   0  0  0  0  0  0  0  0  0  0  0  0
    7.4167   -4.5542    0.0000 C   0  0  0  0  0  0  0  0  0  0  0  0
    5.7500   -1.4250    0.0000 C   0  0  0  0  0  0  0  0  0  0  0  0
    5.4917   -6.7750    0.0000 C   0  0  0  0  0  0  0  0  0  0  0  0
    2.8792   -5.6125    0.0000 C   0  0  0  0  0  0  0  0  0  0  0  0
  2  3  1  0
  1  3  1  0
  4  5  1  0
  1  5  1  6
  6  1  1  0
  7  4  2  0
  8  2  2  0
  9  6  2  0
 10  1  1  0
 11  7  1  0
 12  8  1  0
 13 14  1  0
 14 10  1  0
 15  3  2  0
 16 13  2  0
 17  7  1  0
 18  6  1  0
 19  8  1  0
 20 11  1  0
 10 21  1  1
 22 18  1  0
 23 19  1  0
 24 20  1  0
  4  2  1  0
  9 13  1  0
 12 11  2  0
M  END
>  <ID>  (1211) 


>  <MOLENAME>  (1211) 
GRISEOFULVIN

>  <therap>  (1211) 
antifungal, inhibits mitosis in metaphase

>  <ref>  (1211) 
J Chem Soc 1952:3949

>  <cas#>  (1211) 
126-07-8

>  <source>  (1211) 
Penicillium griseofulvum

>  <status>  (1211) 
USP, INN, BAN, JAN

>  <tradename>  (1211) 
FULVICIN

>  <SMILES>  (1211) 
COC1=CC(=O)C[C@@H](C)[C@]12Oc1c(Cl)c(OC)cc(OC)c1C2=O

>  <standardized_failed>  (1211) 
False

$$$$

     RDKit          2D

 18 18  0  0  0  0  0  0  0  0999 V2000
    3.0250   -2.2667    0.0000 C   0  0  0  0  0  0  0  0  0  0  0  0
    2.6500   -1.6167    0.0000 N   0  0  0  0  0  0  0  0  0  0  0  0
    1.9000   -1.6167    0.0000 C   0  0  0  0  0  0  0  0  0  0  0  0
    3.7750   -2.2667    0.0000 N   0  0  0  0  0  0  0  0  0  0  0  0
    1.1500   -1.6167    0.0000 N   0  0  0  0  0  0  0  0  0  0  0  0
    2.6500   -2.9125    0.0000 N   0  0  0  0  0  0  0  0  0  0  0  0
    4.1500   -1.6167    0.0000 C   0  0  0  0  0  0  0  0  0  0  0  0
    4.9000   -1.6167    0.0000 C   0  0  0  0  0  0  0  0  0  0  0  0
    0.4000   -2.9125    0.0000 N   0  0  0  0  0  0  0  0  0  0  0  0
    1.9000   -2.9125    0.0000 C   0  0  0  0  0  0  0  0  0  0  0  0
    1.5250   -3.5625    0.0000 C   0  0  0  0  0  0  0  0  0  0  0  0
    1.5250   -2.2667    0.0000 C   0  0  0  0  0  0  0  0  0  0  0  0
    0.7750   -3.5625    0.0000 C   0  0  0  0  0  0  0  0  0  0  0  0
    0.7750   -2.2667    0.0000 C   0  0  0  0  0  0  0  0  0  0  0  0
    4.9000   -2.3667    0.0000 C   0  0  0  0  0  0  0  0  0  0  0  0
    4.9000   -0.8667    0.0000 C   0  0  0  0  0  0  0  0  0  0  0  0
    5.6500   -1.6167    0.0000 C   0  0  0  0  0  0  0  0  0  0  0  0
    3.7750   -0.9750    0.0000 C   0  0  0  0  0  0  0  0  0  0  0  0
  2  1  2  0
  3  2  1  0
  4  1  1  0
  5  3  3  0
  6  1  1  0
  7  4  1  0
  8  7  1  0
  9 14  2  0
 10  6  1  0
 11 10  1  0
 12 10  2  0
 13 11  2  0
 14 12  1  0
 15  8  1  0
 16  8  1  0
 17  8  1  0
 18  7  1  0
  9 13  1  0
M  END
>  <ID>  (1212) 


>  <MOLENAME>  (1212) 
PINACIDIL

>  <therap>  (1212) 
K channel agonist, antihypertensive

>  <ref>  (1212) 
Eur J Clin Pharmacol 26:603 (1984); Drug Dev Res 9:249 (1986)

>  <cas#>  (1212) 
85371-64-8, 60560-33-0 [anhydrous]

>  <source>  (1212) 
synthetic

>  <status>  (1212) 
USAN, INN

>  <tradename>  (1212) 
PINDAC

>  <SMILES>  (1212) 
CC(N/C(=N/C#N)Nc1ccncc1)C(C)(C)C

>  <standardized_failed>  (1212) 
False

$$$$

     RDKit          2D

 34 34  0  0  0  0  0  0  0  0999 V2000
    4.0542   -3.0542    0.0000 C   0  0  0  0  0  0  0  0  0  0  0  0
    3.3042   -3.0542    0.0000 C   0  0  0  0  0  0  0  0  0  0  0  0
    4.0542   -2.3042    0.0000 C   0  0  0  0  0  0  0  0  0  0  0  0
    4.0542   -1.5417    0.0000 N   0  0  0  0  0  0  0  0  0  0  0  0
    2.9292   -2.4042    0.0000 C   0  0  0  0  0  0  0  0  0  0  0  0
    2.1792   -2.4042    0.0000 C   0  0  0  0  0  0  0  0  0  0  0  0
    9.3042   -4.3417    0.0000 C   0  0  0  0  0  0  0  0  0  0  0  0
    1.8042   -3.0542    0.0000 C   0  0  0  0  0  0  0  0  0  0  0  0
    9.6792   -4.9917    0.0000 C   0  0  0  0  0  0  0  0  0  0  0  0
    2.9292   -3.7042    0.0000 C   0  0  0  0  0  0  0  0  0  0  0  0
    8.5542   -4.3417    0.0000 C   0  0  0  0  0  0  0  0  0  0  0  0
    2.1792   -3.7042    0.0000 C   0  0  0  0  0  0  0  0  0  0  0  0
    9.3042   -5.6292    0.0000 C   0  0  0  0  0  0  0  0  0  0  0  0
    4.0542   -3.8042    0.0000 C   0  0  0  0  0  0  0  0  0  0  0  0
    8.1792   -4.9917    0.0000 C   0  0  0  0  0  0  0  0  0  0  0  0
    6.3042   -4.3417    0.0000 N   0  0  0  0  0  0  0  0  0  0  0  0
    8.5542   -5.6292    0.0000 C   0  0  0  0  0  0  0  0  0  0  0  0
    1.7917   -1.7542    0.0000 O   0  0  0  0  0  0  0  0  0  0  0  0
    7.0542   -4.3417    0.0000 C   0  0  0  0  0  0  0  0  0  0  0  0
    9.6792   -3.6792    0.0000 O   0  0  0  0  0  0  0  0  0  0  0  0
    7.4292   -4.9917    0.0000 C   0  0  0  0  0  0  0  0  0  0  0  0
    7.4167   -2.8667    0.0000 Cl  0  0  0  0  0  0  0  0  0  0  0  0
    4.8042   -3.0542    0.0000 C   0  0  0  0  0  0  0  0  0  0  0  0
   10.4292   -4.9917    0.0000 O   0  0  0  0  0  0  0  0  0  0  0  0
    1.0542   -3.0542    0.0000 O   0  0  0  0  0  0  0  0  0  0  0  0
    5.1792   -3.6917    0.0000 C   0  0  0  0  0  0  0  0  0  0  0  0
    5.9292   -3.6917    0.0000 C   0  0  0  0  0  0  0  0  0  0  0  0
    5.9292   -4.9917    0.0000 C   0  0  0  0  0  0  0  0  0  0  0  0
    4.6917   -4.1792    0.0000 C   0  0  0  0  0  0  0  0  0  0  0  0
    3.4042   -4.1792    0.0000 C   0  0  0  0  0  0  0  0  0  0  0  0
    9.3042   -3.0292    0.0000 C   0  0  0  0  0  0  0  0  0  0  0  0
    1.0417   -1.7542    0.0000 C   0  0  0  0  0  0  0  0  0  0  0  0
    0.6792   -2.4042    0.0000 C   0  0  0  0  0  0  0  0  0  0  0  0
   10.7917   -5.6417    0.0000 C   0  0  0  0  0  0  0  0  0  0  0  0
  2  1  1  0
  3  1  1  0
  4  3  3  0
  5  2  2  0
  6  5  1  0
  7 11  2  0
  8 12  1  0
  9 13  2  0
 10  2  1  0
 11 15  1  0
 12 10  2  0
 13 17  1  0
 14  1  1  0
 15 21  1  0
 16 27  1  0
 17 15  2  0
 18  6  1  0
 19 16  1  0
 20  7  1  0
 21 19  1  0
 23  1  1  0
 24  9  1  0
 25  8  1  0
 26 23  1  0
 27 26  1  0
 28 16  1  0
 29 14  1  0
 30 14  1  0
 31 20  1  0
 32 18  1  0
 33 25  1  0
 34 24  1  0
  8  6  2  0
  7  9  1  0
M  END
>  <ID>  (1213) 


>  <MOLENAME>  (1213) 
VERAPAMIL HYDROCHLORIDE

>  <therap>  (1213) 
adrenegic blocker, Ca channel blocker, coronary vasodilator, antiarrhythmic

>  <ref>  (1213) 
Drugs 25:125 (1983); 38:19 (1989)

>  <cas#>  (1213) 
152-11-4, 52-53-9 [verapamil]

>  <source>  (1213) 
synthetic; D-365, CP-16533-1

>  <status>  (1213) 
USP, INN, BAN, JAN

>  <tradename>  (1213) 
VERELAN

>  <SMILES>  (1213) 
COc1ccc(CCN(C)CCCC(C#N)(c2cc(OC)c(OC)cc2)C(C)C)cc1OC

>  <standardized_failed>  (1213) 
False

$$$$

     RDKit          2D

 14 15  0  0  0  0  0  0  0  0999 V2000
    4.8417   -1.2167    0.0000 C   0  0  0  0  0  0  0  0  0  0  0  0
    3.6167   -1.9292    0.0000 C   0  0  0  0  0  0  0  0  0  0  0  0
    5.2625   -1.9292    0.0000 C   0  0  0  0  0  0  0  0  0  0  0  0
    4.0167   -1.2167    0.0000 C   0  0  0  0  0  0  0  0  0  0  0  0
    4.8417   -2.6500    0.0000 N   0  0  0  0  0  0  0  0  0  0  0  0
    4.0250   -2.6500    0.0000 C   0  0  0  0  0  0  0  0  0  0  0  0
    6.0875   -1.9292    0.0000 O   0  0  0  0  0  0  0  0  0  0  0  0
    2.7917   -1.9292    0.0000 C   0  0  0  0  0  0  0  0  0  0  0  0
    1.1417   -1.9375    0.0000 N   0  0  0  0  0  0  0  0  0  0  0  0
    5.2542   -0.5000    0.0000 N   0  0  0  0  0  0  0  0  0  0  0  0
    1.5542   -1.2250    0.0000 C   0  0  0  0  0  0  0  0  0  0  0  0
    1.5542   -2.6417    0.0000 C   0  0  0  0  0  0  0  0  0  0  0  0
    2.3792   -2.6417    0.0000 C   0  0  0  0  0  0  0  0  0  0  0  0
    2.3792   -1.2167    0.0000 C   0  0  0  0  0  0  0  0  0  0  0  0
  2  4  1  0
  3  1  1  0
  4  1  2  0
  5  3  1  0
  6  2  2  0
  7  3  2  0
  8  2  1  0
  9 11  2  0
 10  1  1  0
 11 14  1  0
 12 13  2  0
 13  8  1  0
 14  8  2  0
  6  5  1  0
 12  9  1  0
M  END
>  <ID>  (1214) 


>  <MOLENAME>  (1214) 
INAMRINONE

>  <therap>  (1214) 
cardiac stimulant

>  <ref>  (1214) 
Expert Opin. Pharmacother. (2006), 7(16), 2179-2202; Drugs (1983), 26(6), 468-502; Circulation Res. (1979), 45(5), 666-77

>  <cas#>  (1214) 
60719-84-8

>  <source>  (1214) 
synthetic; WIN-40680, AMRINONE

>  <status>  (1214) 
USP, INN, BAN, JAN

>  <tradename>  (1214) 
INOCOR

>  <SMILES>  (1214) 
Nc1cc(-c2ccncc2)c[nH]c1=O

>  <standardized_failed>  (1214) 
False

$$$$

     RDKit          2D

 11 11  0  0  0  0  0  0  0  0999 V2000
    7.5625   -2.4917    0.0000 C   0  0  0  0  0  0  0  0  0  0  0  0
    7.1500   -3.2042    0.0000 N   0  0  0  0  0  0  0  0  0  0  0  0
    7.1500   -1.7792    0.0000 O   0  0  0  0  0  0  0  0  0  0  0  0
    6.3250   -3.2042    0.0000 C   0  0  0  0  0  0  0  0  0  0  0  0
    4.6667   -3.2042    0.0000 C   0  0  0  0  0  0  0  0  0  0  0  0
    5.9125   -2.4875    0.0000 C   0  0  0  0  0  0  0  0  0  0  0  0
    5.9125   -3.9167    0.0000 C   0  0  0  0  0  0  0  0  0  0  0  0
    5.0792   -2.4875    0.0000 C   0  0  0  0  0  0  0  0  0  0  0  0
    5.0792   -3.9167    0.0000 C   0  0  0  0  0  0  0  0  0  0  0  0
    3.8417   -3.2042    0.0000 O   0  0  0  0  0  0  0  0  0  0  0  0
    8.3917   -2.4917    0.0000 C   0  0  0  0  0  0  0  0  0  0  0  0
  2  1  1  0
  3  1  2  0
  4  2  1  0
  5  9  1  0
  6  4  2  0
  7  4  1  0
  8  6  1  0
  9  7  2  0
 10  5  1  0
 11  1  1  0
  5  8  2  0
M  END
>  <ID>  (1215) 


>  <MOLENAME>  (1215) 
ACETAMINOPHEN

>  <therap>  (1215) 
analgesic, antipyretic

>  <ref>  (1215) 
Toxicol Appl Pharmacol 19:20 (1971); Rev Biochem Toxicol 2:103 {1980}

>  <cas#>  (1215) 
103-90-2

>  <source>  (1215) 
synthetic

>  <status>  (1215) 
USP, INN, BAN

>  <tradename>  (1215) 
TYLENOL

>  <SMILES>  (1215) 
CC(=O)Nc1ccc(O)cc1

>  <standardized_failed>  (1215) 
False

$$$$

     RDKit          2D

 13 13  0  0  0  0  0  0  0  0999 V2000
    2.9792   -1.4792    0.0000 C   0  0  0  0  0  0  0  0  0  0  0  0
    3.6292   -1.1042    0.0000 C   0  0  0  0  0  0  0  0  0  0  0  0
    2.9792   -2.2292    0.0000 C   0  0  0  0  0  0  0  0  0  0  0  0
    3.6292   -2.6125    0.0000 O   0  0  0  0  0  0  0  0  0  0  0  0
    3.6292   -3.3625    0.0000 C   0  0  0  0  0  0  0  0  0  0  0  0
    3.6292   -0.3542    0.0000 O   0  0  0  0  0  0  0  0  0  0  0  0
    4.2792   -3.7375    0.0000 O   0  0  0  0  0  0  0  0  0  0  0  0
    4.2792   -1.4792    0.0000 O   0  0  0  0  0  0  0  0  0  0  0  0
    2.3292   -1.1042    0.0000 C   0  0  0  0  0  0  0  0  0  0  0  0
    2.3292   -2.6042    0.0000 C   0  0  0  0  0  0  0  0  0  0  0  0
    2.9875   -3.7375    0.0000 C   0  0  0  0  0  0  0  0  0  0  0  0
    1.6792   -1.4792    0.0000 C   0  0  0  0  0  0  0  0  0  0  0  0
    1.6792   -2.2292    0.0000 C   0  0  0  0  0  0  0  0  0  0  0  0
  2  1  1  0
  3  1  2  0
  4  3  1  0
  5  4  1  0
  6  2  2  0
  7  5  2  0
  8  2  1  0
  9  1  1  0
 10  3  1  0
 11  5  1  0
 12  9  2  0
 13 12  1  0
 10 13  2  0
M  END
>  <ID>  (1216) 


>  <MOLENAME>  (1216) 
ASPIRIN

>  <therap>  (1216) 
analgesic, antipyretic, antiinflammatory

>  <ref>  (1216) 
J Pharmacol Exp Ther 89:205 (1947); J Am Med Assoc 247:3089 (1982); N Eng J Med 348:883 (2003)

>  <cas#>  (1216) 
50-78-2

>  <source>  (1216) 
synthetic

>  <status>  (1216) 
USP, BAN, JAN

>  <tradename>  (1216) 
ACYLPIRIN

>  <SMILES>  (1216) 
CC(=O)Oc1c(C(=O)O)cccc1

>  <standardized_failed>  (1216) 
False

$$$$

     RDKit          2D

  9  9  0  0  0  0  0  0  0  0999 V2000
    3.8500   -2.4375    0.0000 C   0  0  0  0  0  0  0  0  0  0  0  0
    3.1917   -2.8125    0.0000 C   0  0  0  0  0  0  0  0  0  0  0  0
    3.8500   -1.6792    0.0000 C   0  0  0  0  0  0  0  0  0  0  0  0
    2.5500   -2.4375    0.0000 C   0  0  0  0  0  0  0  0  0  0  0  0
    3.1917   -1.3042    0.0000 C   0  0  0  0  0  0  0  0  0  0  0  0
    3.1917   -3.5625    0.0000 Cl  0  0  0  0  0  0  0  0  0  0  0  0
    2.5500   -1.6792    0.0000 C   0  0  0  0  0  0  0  0  0  0  0  0
    3.1917   -0.5542    0.0000 O   0  0  0  0  0  0  0  0  0  0  0  0
    4.5000   -2.8125    0.0000 C   0  0  0  0  0  0  0  0  0  0  0  0
  2  1  2  0
  3  1  1  0
  4  2  1  0
  5  3  2  0
  6  2  1  0
  7  5  1  0
  8  5  1  0
  9  1  1  0
  4  7  2  0
M  END
>  <ID>  (1217) 


>  <MOLENAME>  (1217) 
CHLOROCRESOL

>  <therap>  (1217) 
antiinfectant

>  <ref>  (1217) 
JACS 63:3165 (1941)

>  <cas#>  (1217) 
59-50-7

>  <source>  (1217) 
synthetic

>  <status>  (1217) 
USAN, NF, INN

>  <tradename>  (1217) 
nan

>  <SMILES>  (1217) 
Cc1c(Cl)ccc(O)c1

>  <standardized_failed>  (1217) 
False

$$$$

     RDKit          2D

 19 19  0  0  0  0  0  0  0  0999 V2000
    6.8250   -3.5167    0.0000 N   0  0  0  0  0  0  0  0  0  0  0  0
    6.1750   -3.8917    0.0000 C   0  0  0  0  0  0  0  0  0  0  0  0
    7.4750   -3.8917    0.0000 C   0  0  0  0  0  0  0  0  0  0  0  0
    6.1750   -4.6417    0.0000 C   0  0  0  0  0  0  0  0  0  0  0  0
    7.4750   -4.6417    0.0000 C   0  0  0  0  0  0  0  0  0  0  0  0
    6.8250   -5.0167    0.0000 C   0  0  0  0  0  0  0  0  0  0  0  0
    8.1250   -3.5167    0.0000 O   0  0  0  0  0  0  0  0  0  0  0  0
    5.5250   -3.5167    0.0000 C   0  0  0  0  0  0  0  0  0  0  0  0
    6.8250   -2.7667    0.0000 O   0  0  0  0  0  0  0  0  0  0  0  0
    8.1375   -2.1792    0.0000 N   0  0  0  0  0  0  0  0  0  0  0  0
    6.8167   -5.7667    0.0000 C   0  0  0  0  0  0  0  0  0  0  0  0
   10.2667   -1.7667    0.0000 O   0  0  0  0  0  0  0  0  0  0  0  0
    5.5250   -2.7542    0.0000 C   0  0  0  0  0  0  0  0  0  0  0  0
    4.8667   -3.8917    0.0000 C   0  0  0  0  0  0  0  0  0  0  0  0
    8.8500   -1.7667    0.0000 C   0  0  0  0  0  0  0  0  0  0  0  0
    9.5625   -2.1792    0.0000 C   0  0  0  0  0  0  0  0  0  0  0  0
    4.8667   -2.3792    0.0000 C   0  0  0  0  0  0  0  0  0  0  0  0
    4.2250   -3.5167    0.0000 C   0  0  0  0  0  0  0  0  0  0  0  0
    4.2250   -2.7542    0.0000 C   0  0  0  0  0  0  0  0  0  0  0  0
  2  1  1  0
  3  1  1  0
  4  2  2  0
  5  3  1  0
  6  5  2  0
  7  3  2  0
  8  2  1  0
  9  1  1  0
 11  6  1  0
 12 16  1  0
 13  8  1  0
 14  8  1  0
 15 10  1  0
 16 15  1  0
 17 13  1  0
 18 14  1  0
 19 18  1  0
  6  4  1  0
 19 17  1  0
M  END
>  <ID>  (1218) 


>  <MOLENAME>  (1218) 
CICLOPIROX OLAMINE

>  <therap>  (1218) 
antifungal

>  <ref>  (1218) 
Arzneim Forsch 31:1309 (1981); Expert Opin Drug Saf 4:235 (2005)

>  <cas#>  (1218) 
41621-49-2

>  <source>  (1218) 
synthetic; HOE-296

>  <status>  (1218) 
USP, INN, BAN

>  <tradename>  (1218) 
LOPROX

>  <SMILES>  (1218) 
Cc1cc(=O)n(O)c(C2CCCCC2)c1

>  <standardized_failed>  (1218) 
False

$$$$

     RDKit          2D

  8  8  0  0  0  0  0  0  0  0999 V2000
    5.5292   -3.3250    0.0000 C   0  0  0  0  0  0  0  0  0  0  0  0
    5.5292   -4.8292    0.0000 C   0  0  0  0  0  0  0  0  0  0  0  0
    4.8917   -3.7000    0.0000 C   0  0  0  0  0  0  0  0  0  0  0  0
    6.1792   -3.7000    0.0000 C   0  0  0  0  0  0  0  0  0  0  0  0
    6.1792   -4.4542    0.0000 C   0  0  0  0  0  0  0  0  0  0  0  0
    4.8917   -4.4542    0.0000 C   0  0  0  0  0  0  0  0  0  0  0  0
    5.5292   -2.5750    0.0000 O   0  0  0  0  0  0  0  0  0  0  0  0
    5.5292   -5.5792    0.0000 C   0  0  0  0  0  0  0  0  0  0  0  0
  2  5  1  0
  3  1  2  0
  4  1  1  0
  5  4  2  0
  6  3  1  0
  7  1  1  0
  8  2  1  0
  2  6  2  0
M  END
>  <ID>  (1219) 


>  <MOLENAME>  (1219) 
CRESOL

>  <therap>  (1219) 
antiinfectant

>  <ref>  (1219) 
J Pharmacol Exp Ther 80:233 (1944)

>  <cas#>  (1219) 
1319-77-3

>  <source>  (1219) 
coal tar

>  <status>  (1219) 
USAN, NF, JAN

>  <tradename>  (1219) 
nan

>  <SMILES>  (1219) 
Cc1ccc(O)cc1

>  <standardized_failed>  (1219) 
False

$$$$

     RDKit          2D

 32 31  0  0  0  0  0  0  0  0999 V2000
    7.0000   -7.9417    0.0000 C   0  0  0  0  0  0  0  0  0  0  0  0
    6.6750   -7.3792    0.0000 C   0  0  0  0  0  0  0  0  0  0  0  0
    8.8292   -7.9250    0.0000 C   0  0  0  0  0  0  0  0  0  0  0  0
    8.5000   -7.3625    0.0000 C   0  0  0  0  0  0  0  0  0  0  0  0
    6.6750   -8.5042    0.0000 C   0  0  0  0  0  0  0  0  0  0  0  0
    7.0000   -6.8167    0.0000 C   0  0  0  0  0  0  0  0  0  0  0  0
    8.5000   -8.4875    0.0000 C   0  0  0  0  0  0  0  0  0  0  0  0
    8.8292   -6.7917    0.0000 C   0  0  0  0  0  0  0  0  0  0  0  0
    4.5875   -7.5292    0.0000 N   0  0  0  0  0  0  0  0  0  0  0  0
    3.8667   -7.1167    0.0000 C   0  0  0  0  0  0  0  0  0  0  0  0
    3.1542   -7.5292    0.0000 C   0  0  0  0  0  0  0  0  0  0  0  0
    9.4792   -6.7917    0.0000 O   0  0  0  0  0  0  0  0  0  0  0  0
    6.0167   -8.5042    0.0000 O   0  0  0  0  0  0  0  0  0  0  0  0
    7.6542   -6.8167    0.0000 O   0  0  0  0  0  0  0  0  0  0  0  0
    7.8417   -8.4875    0.0000 O   0  0  0  0  0  0  0  0  0  0  0  0
    2.4417   -8.7667    0.0000 N   0  0  0  0  0  0  0  0  0  0  0  0
    6.0167   -7.3792    0.0000 O   0  0  0  0  0  0  0  0  0  0  0  0
    7.6542   -7.9417    0.0000 O   0  0  0  0  0  0  0  0  0  0  0  0
    9.4792   -7.9250    0.0000 O   0  0  0  0  0  0  0  0  0  0  0  0
    7.8417   -7.3625    0.0000 O   0  0  0  0  0  0  0  0  0  0  0  0
    6.6750   -6.2542    0.0000 O   0  0  0  0  0  0  0  0  0  0  0  0
    7.0000   -9.0667    0.0000 O   0  0  0  0  0  0  0  0  0  0  0  0
    8.8292   -9.0500    0.0000 O   0  0  0  0  0  0  0  0  0  0  0  0
    8.5000   -6.2292    0.0000 O   0  0  0  0  0  0  0  0  0  0  0  0
    3.1542   -8.3542    0.0000 C   0  0  0  0  0  0  0  0  0  0  0  0
    5.2042   -6.9667    0.0000 C   0  0  0  0  0  0  0  0  0  0  0  0
    4.6667   -8.3542    0.0000 C   0  0  0  0  0  0  0  0  0  0  0  0
    4.0417   -6.3042    0.0000 C   0  0  0  0  0  0  0  0  0  0  0  0
    4.8625   -6.2250    0.0000 C   0  0  0  0  0  0  0  0  0  0  0  0
    2.4417   -7.1167    0.0000 C   0  0  0  0  0  0  0  0  0  0  0  0
    1.7250   -8.3542    0.0000 C   0  0  0  0  0  0  0  0  0  0  0  0
    1.7250   -7.5292    0.0000 C   0  0  0  0  0  0  0  0  0  0  0  0
  2  1  1  0
  4  3  1  0
  5  1  1  0
  6  2  1  0
  7  3  1  0
  8  4  1  0
 10  9  1  0
 10 11  1  0
 12  8  2  0
 13  5  2  0
 14  6  2  0
 15  7  2  0
 16 25  2  0
 17  2  1  0
 18  1  1  0
 19  3  1  0
 20  4  1  0
 21  6  1  0
 22  5  1  0
 23  7  1  0
 24  8  1  0
 25 11  1  0
 26  9  1  0
 27  9  1  0
 10 28  1  6
 29 26  1  0
 30 11  2  0
 31 32  2  0
 32 30  1  0
 29 28  1  0
 16 31  1  0
M  END
>  <ID>  (1220) 


>  <MOLENAME>  (1220) 
NICOTINE BITARTRATE

>  <therap>  (1220) 
nicotinyl acetylchloline receptor agonist, ectoparasiticide

>  <ref>  (1220) 
Arch. Int. Pharmacodyn. Ther. (1970), 187(1), 88-96; Psychopharmacologia (1969), 14(3), 221-32; Clin. Pharmacol. Ther. (1967), 8(6), 789-96

>  <cas#>  (1220) 
65-31-6

>  <source>  (1220) 
Nicotiana tabacum

>  <status>  (1220) 
USAN

>  <tradename>  (1220) 
NICORETTE

>  <SMILES>  (1220) 
CN1CCC[C@H]1c1cccnc1

>  <standardized_failed>  (1220) 
False

$$$$

     RDKit          2D

 10 12  0  0  0  0  0  0  0  0999 V2000
    1.8750   -1.3417    0.0000 N   0  0  0  0  0  0  0  0  0  0  0  0
    2.5167   -0.2167    0.0000 N   0  0  0  0  0  0  0  0  0  0  0  0
    1.3500   -2.4667    0.0000 N   0  0  0  0  0  0  0  0  0  0  0  0
    3.8625   -1.7125    0.0000 N   0  0  0  0  0  0  0  0  0  0  0  0
    1.3042   -0.2125    0.0000 C   0  0  0  0  0  0  0  0  0  0  0  0
    2.1125   -2.0542    0.0000 C   0  0  0  0  0  0  0  0  0  0  0  0
    3.9250   -2.4625    0.0000 C   0  0  0  0  0  0  0  0  0  0  0  0
    2.5167   -1.7167    0.0000 C   0  0  0  0  0  0  0  0  0  0  0  0
    3.8625   -0.6792    0.0000 C   0  0  0  0  0  0  0  0  0  0  0  0
    1.8750   -0.5917    0.0000 C   0  0  0  0  0  0  0  0  0  0  0  0
  2 10  1  0
  3  6  1  0
  4  8  1  0
  5  2  1  0
  6  1  1  0
  7  4  1  0
  8  1  1  0
  9  2  1  0
 10  1  1  0
  9  4  1  0
  5  3  1  0
  7  3  1  0
M  END
>  <ID>  (1221) 


>  <MOLENAME>  (1221) 
METHENAMINE

>  <therap>  (1221) 
antibacterial (urinary)

>  <ref>  (1221) 
Infect. Dis. Ther. (1994), 9, 403-9; Pharm. Weekbl. (1982), 117(22), 505-7; Am. Ind. Hyg. Assoc. J. (1989), 50(11), 579-85

>  <cas#>  (1221) 
100-97-0

>  <source>  (1221) 
synthetic

>  <status>  (1221) 
USP, INN, JAN

>  <tradename>  (1221) 
CYSTEX

>  <SMILES>  (1221) 
C1N2CN3CN1CN(C2)C3

>  <standardized_failed>  (1221) 
False

$$$$

     RDKit          2D

 24 27  0  0  0  0  0  0  0  0999 V2000
    5.8167   -7.4417    0.0000 C   0  0  0  0  0  0  0  0  0  0  0  0
    6.3000   -6.7750    0.0000 O   0  0  0  0  0  0  0  0  0  0  0  0
    5.8167   -6.1125    0.0000 C   0  0  0  0  0  0  0  0  0  0  0  0
    5.0292   -7.1917    0.0000 C   0  0  0  0  0  0  0  0  0  0  0  0
    5.0292   -6.3667    0.0000 C   0  0  0  0  0  0  0  0  0  0  0  0
    5.5625   -8.2292    0.0000 C   0  0  0  0  0  0  0  0  0  0  0  0
    6.6292   -7.6875    0.0000 C   0  0  0  0  0  0  0  0  0  0  0  0
    6.0667   -5.3250    0.0000 O   0  0  0  0  0  0  0  0  0  0  0  0
    7.2625   -7.1625    0.0000 C   0  0  0  0  0  0  0  0  0  0  0  0
    6.7750   -8.4917    0.0000 C   0  0  0  0  0  0  0  0  0  0  0  0
    4.7500   -8.4042    0.0000 C   0  0  0  0  0  0  0  0  0  0  0  0
    6.1125   -8.8417    0.0000 C   0  0  0  0  0  0  0  0  0  0  0  0
    5.0500   -9.8042    0.0000 C   0  0  0  0  0  0  0  0  0  0  0  0
    8.1792   -8.2500    0.0000 C   0  0  0  0  0  0  0  0  0  0  0  0
    4.3167   -7.6042    0.0000 C   0  0  0  0  0  0  0  0  0  0  0  0
    4.4917   -9.1875    0.0000 C   0  0  0  0  0  0  0  0  0  0  0  0
    8.0292   -7.4417    0.0000 C   0  0  0  0  0  0  0  0  0  0  0  0
    5.8625   -9.6250    0.0000 C   0  0  0  0  0  0  0  0  0  0  0  0
    7.5417   -8.7792    0.0000 C   0  0  0  0  0  0  0  0  0  0  0  0
    8.9667   -8.5250    0.0000 O   0  0  0  0  0  0  0  0  0  0  0  0
    4.8292  -10.6000    0.0000 O   0  0  0  0  0  0  0  0  0  0  0  0
    4.3167   -5.9542    0.0000 C   0  0  0  0  0  0  0  0  0  0  0  0
    3.6042   -7.1917    0.0000 C   0  0  0  0  0  0  0  0  0  0  0  0
    3.6042   -6.3667    0.0000 C   0  0  0  0  0  0  0  0  0  0  0  0
  2  1  1  0
  3  2  1  0
  4  1  1  0
  5  4  2  0
  6  1  1  0
  7  1  1  0
  8  3  2  0
  9  7  2  0
 10  7  1  0
 11  6  2  0
 12  6  1  0
 13 18  1  0
 14 19  1  0
 15  4  1  0
 16 11  1  0
 17  9  1  0
 18 12  2  0
 19 10  2  0
 20 14  1  0
 21 13  1  0
 22  5  1  0
 23 15  2  0
 24 23  1  0
  5  3  1  0
 17 14  2  0
 16 13  2  0
 22 24  2  0
M  END
>  <ID>  (1222) 


>  <MOLENAME>  (1222) 
PHENOLPHTHALEIN

>  <therap>  (1222) 
cathartic, laxative

>  <ref>  (1222) 
Anal Profiles Drug Subs 20:627 (1991); Fundam Appl Toxicol 18:48 (1992)

>  <cas#>  (1222) 
77-09-8

>  <source>  (1222) 
synthetic

>  <status>  (1222) 
USP-XXIII

>  <tradename>  (1222) 
EXLAX

>  <SMILES>  (1222) 
O=C1OC(c2ccc(O)cc2)(c2ccc(O)cc2)c2c1cccc2

>  <standardized_failed>  (1222) 
False

$$$$

     RDKit          2D

  7  6  0  0  0  0  0  0  0  0999 V2000
    1.2500   -2.2167    0.0000 N   0  0  0  0  0  0  0  0  0  0  0  0
    1.9667   -1.8042    0.0000 C   0  0  0  0  0  0  0  0  0  0  0  0
    3.3917   -1.8042    0.0000 C   0  0  0  0  0  0  0  0  0  0  0  0
    2.6792   -1.3917    0.0000 C   0  0  0  0  0  0  0  0  0  0  0  0
    3.3917   -2.6292    0.0000 O   0  0  0  0  0  0  0  0  0  0  0  0
    4.1083   -1.3917    0.0000 N   0  0  0  0  0  0  0  0  0  0  0  0
    4.8208   -1.8042    0.0000 N   0  0  0  0  0  0  0  0  0  0  0  0
  2  1  3  0
  3  4  1  0
  4  2  1  0
  5  3  2  0
  6  3  1  0
  7  6  1  0
M  END
>  <ID>  (1223) 


>  <MOLENAME>  (1223) 
CYACETACIDE

>  <therap>  (1223) 
antibacterial, tuberculostatic

>  <ref>  (1223) 
J Prakt Chem 92:313 (1915); Arch Pharm 288:453 (1955)

>  <cas#>  (1223) 
140-87-4

>  <source>  (1223) 
synthetic

>  <status>  (1223) 
INN, BAN

>  <tradename>  (1223) 
DICTYZIDE

>  <SMILES>  (1223) 
N#CCC(=O)NN

>  <standardized_failed>  (1223) 
False

$$$$

     RDKit          2D

  6  6  0  0  0  0  0  0  0  0999 V2000
    4.5167   -4.1167    0.0000 N   0  0  0  0  0  0  0  0  0  0  0  0
    4.5167   -5.6292    0.0000 N   0  0  0  0  0  0  0  0  0  0  0  0
    3.8750   -4.5042    0.0000 C   0  0  0  0  0  0  0  0  0  0  0  0
    5.1750   -4.5042    0.0000 C   0  0  0  0  0  0  0  0  0  0  0  0
    5.1750   -5.2542    0.0000 C   0  0  0  0  0  0  0  0  0  0  0  0
    3.8750   -5.2542    0.0000 C   0  0  0  0  0  0  0  0  0  0  0  0
  2  5  1  0
  3  1  1  0
  4  1  1  0
  5  4  1  0
  6  3  1  0
  2  6  1  0
M  END
>  <ID>  (1224) 


>  <MOLENAME>  (1224) 
PIPERAZINE

>  <therap>  (1224) 
anthelmintic

>  <ref>  (1224) 
J Postgrad Med 30:134 (1984)

>  <cas#>  (1224) 
110-85-0, 144-29-6 [anhydrous], 41372-10-5 [piperazine citrate]

>  <source>  (1224) 
synthetic

>  <status>  (1224) 
USP

>  <tradename>  (1224) 
nan

>  <SMILES>  (1224) 
C1CNCCN1

>  <standardized_failed>  (1224) 
False

$$$$

     RDKit          2D

 11 11  0  0  0  0  0  0  0  0999 V2000
    4.5500   -2.7167    0.0000 N   0  0  0  0  0  0  0  0  0  0  0  0
    4.5500   -1.9625    0.0000 C   0  0  0  0  0  0  0  0  0  0  0  0
    3.8917   -3.0917    0.0000 C   0  0  0  0  0  0  0  0  0  0  0  0
    3.2500   -2.7167    0.0000 C   0  0  0  0  0  0  0  0  0  0  0  0
    3.8917   -1.5792    0.0000 N   0  0  0  0  0  0  0  0  0  0  0  0
    3.2500   -1.9625    0.0000 C   0  0  0  0  0  0  0  0  0  0  0  0
    5.2000   -1.5875    0.0000 S   0  0  0  0  0  0  0  0  0  0  0  0
    3.8917   -3.8417    0.0000 O   0  0  0  0  0  0  0  0  0  0  0  0
    2.5917   -1.5875    0.0000 C   0  0  0  0  0  0  0  0  0  0  0  0
    2.5917   -0.8375    0.0000 C   0  0  0  0  0  0  0  0  0  0  0  0
    1.9417   -0.4625    0.0000 C   0  0  0  0  0  0  0  0  0  0  0  0
  2  1  1  0
  3  1  1  0
  4  3  1  0
  5  2  1  0
  6  4  2  0
  7  2  2  0
  8  3  2  0
  9  6  1  0
 10  9  1  0
 11 10  1  0
  6  5  1  0
M  END
>  <ID>  (1225) 


>  <MOLENAME>  (1225) 
PROPYLTHIOURACIL

>  <therap>  (1225) 
antihyperthyroid

>  <ref>  (1225) 
Profiles Drug Subs 6:457 (1977); N Engl J Med 311:1353 (1984)

>  <cas#>  (1225) 
51-52-5

>  <source>  (1225) 
synthetic

>  <status>  (1225) 
USP, INN, BAN, JAN

>  <tradename>  (1225) 
PROPACIL

>  <SMILES>  (1225) 
CCCc1cc(=O)[nH]c(=S)[nH]1

>  <standardized_failed>  (1225) 
False

$$$$

     RDKit          2D

  8  8  0  0  0  0  0  0  0  0999 V2000
    2.9792    0.2208    0.0000 C   0  0  0  0  0  0  0  0  0  0  0  0
    2.9792   -0.5292    0.0000 C   0  0  0  0  0  0  0  0  0  0  0  0
    2.3167    0.6000    0.0000 C   0  0  0  0  0  0  0  0  0  0  0  0
    2.3167    1.3500    0.0000 O   0  0  0  0  0  0  0  0  0  0  0  0
    3.6292   -0.9042    0.0000 O   0  0  0  0  0  0  0  0  0  0  0  0
    1.6792   -0.5292    0.0000 C   0  0  0  0  0  0  0  0  0  0  0  0
    2.3167   -0.9042    0.0000 C   0  0  0  0  0  0  0  0  0  0  0  0
    1.6792    0.2208    0.0000 C   0  0  0  0  0  0  0  0  0  0  0  0
  2  1  2  0
  3  1  1  0
  4  3  1  0
  5  2  1  0
  6  8  1  0
  7  2  1  0
  8  3  2  0
  6  7  2  0
M  END
>  <ID>  (1226) 


>  <MOLENAME>  (1226) 
RESORCINOL

>  <therap>  (1226) 
keratolytic, antiseborheic

>  <ref>  (1226) 
Regul Toxicol Pharmacol  36:198 (2002)

>  <cas#>  (1226) 
108-46-3

>  <source>  (1226) 
coal tar

>  <status>  (1226) 
USP, JAN

>  <tradename>  (1226) 
nan

>  <SMILES>  (1226) 
Oc1cccc(O)c1

>  <standardized_failed>  (1226) 
False

$$$$

     RDKit          2D

 14 14  0  0  0  0  0  0  0  0999 V2000
    2.9167   -1.0917    0.0000 C   0  0  0  0  0  0  0  0  0  0  0  0
    3.5750   -1.4750    0.0000 N   0  0  0  0  0  0  0  0  0  0  0  0
    2.2667    0.7833    0.0000 As  0  0  0  0  0  5  0  0  0  0  0  0
    2.9167   -0.3417    0.0000 C   0  0  0  0  0  0  0  0  0  0  0  0
    2.2667    0.0333    0.0000 C   0  0  0  0  0  0  0  0  0  0  0  0
    2.2667   -1.4667    0.0000 C   0  0  0  0  0  0  0  0  0  0  0  0
    4.3292   -0.9667    0.0000 O   0  0  0  0  0  0  0  0  0  0  0  0
    3.5750   -2.2250    0.0000 O   0  0  0  0  0  0  0  0  0  0  0  0
    2.2667    1.5250    0.0000 O   0  0  0  0  0  0  0  0  0  0  0  0
    1.6250   -0.3417    0.0000 C   0  0  0  0  0  0  0  0  0  0  0  0
    1.5167    0.7833    0.0000 O   0  0  0  0  0  0  0  0  0  0  0  0
    3.0167    0.7833    0.0000 O   0  0  0  0  0  0  0  0  0  0  0  0
    1.6250   -1.0917    0.0000 C   0  0  0  0  0  0  0  0  0  0  0  0
    2.2667   -2.2250    0.0000 O   0  0  0  0  0  0  0  0  0  0  0  0
  2  1  1  0
  3  5  1  0
  4  1  2  0
  5  4  1  0
  6  1  1  0
  7  2  1  0
  8  2  2  0
  9  3  2  0
 10 13  1  0
 11  3  1  0
 12  3  1  0
 13  6  2  0
 14  6  1  0
 10  5  2  0
M  CHG  2   2   1   7  -1
M  END
>  <ID>  (1227) 


>  <MOLENAME>  (1227) 
ROXARSONE

>  <therap>  (1227) 
antibacterial

>  <ref>  (1227) 
Toxicol Appl Pharmacol 5:507 (1963); J Environ Qual 37:963 (2008)

>  <cas#>  (1227) 
121-19-7

>  <source>  (1227) 
synthetic; NSC-2101

>  <status>  (1227) 
USP, INN, BAN

>  <tradename>  (1227) 
REN-O-SAL

>  <SMILES>  (1227) 
O=[N+]([O-])c1cc([As](=O)(O)O)ccc1O

>  <standardized_failed>  (1227) 
False

$$$$

     RDKit          2D

 14 16  0  0  0  0  0  0  0  0999 V2000
    6.6542  -10.1500    0.0000 C   0  0  0  0  0  0  0  0  0  0  0  0
    6.1750  -10.8167    0.0000 N   0  0  0  0  0  0  0  0  0  0  0  0
    7.4792  -10.1417    0.0000 C   0  0  0  0  0  0  0  0  0  0  0  0
    6.1750   -9.4875    0.0000 N   0  0  0  0  0  0  0  0  0  0  0  0
    7.9667  -10.8000    0.0000 N   0  0  0  0  0  0  0  0  0  0  0  0
    5.3917  -10.5667    0.0000 C   0  0  0  0  0  0  0  0  0  0  0  0
    5.3917   -9.7417    0.0000 C   0  0  0  0  0  0  0  0  0  0  0  0
    8.7417   -9.7167    0.0000 S   0  0  0  0  0  0  0  0  0  0  0  0
    8.7500  -10.5375    0.0000 C   0  0  0  0  0  0  0  0  0  0  0  0
    7.9542   -9.4667    0.0000 C   0  0  0  0  0  0  0  0  0  0  0  0
    4.6792  -10.9792    0.0000 C   0  0  0  0  0  0  0  0  0  0  0  0
    4.6792   -9.3292    0.0000 C   0  0  0  0  0  0  0  0  0  0  0  0
    3.9625   -9.7417    0.0000 C   0  0  0  0  0  0  0  0  0  0  0  0
    3.9625  -10.5667    0.0000 C   0  0  0  0  0  0  0  0  0  0  0  0
  2  1  2  0
  3  1  1  0
  4  1  1  0
  5  3  1  0
  6  2  1  0
  7  4  1  0
  8 10  1  0
  9  5  2  0
 10  3  2  0
 11  6  2  0
 12  7  2  0
 13 12  1  0
 14 11  1  0
  6  7  1  0
  8  9  1  0
 14 13  2  0
M  END
>  <ID>  (1228) 


>  <MOLENAME>  (1228) 
THIABENDAZOLE

>  <therap>  (1228) 
anthelmintic

>  <ref>  (1228) 
Toxicol Appl Pharmacol 7:53 (1965); Anal Profiles Drug Subs 16:611 (1986)

>  <cas#>  (1228) 
148-79-8

>  <source>  (1228) 
synthetic; MK-360

>  <status>  (1228) 
USP, INN, BAN, JAN

>  <tradename>  (1228) 
MINTEZOL

>  <SMILES>  (1228) 
c1ccc2[nH]c(-c3cscn3)nc2c1

>  <standardized_failed>  (1228) 
False

$$$$

     RDKit          2D

 14 13  0  0  0  0  0  0  0  0999 V2000
    3.1542   -2.9667    0.0000 C   0  0  0  0  0  0  0  0  0  0  0  0
    3.8042   -2.5917    0.0000 C   0  0  0  0  0  0  0  0  0  0  0  0
    2.5000   -2.5917    0.0000 C   0  0  0  0  0  0  0  0  0  0  0  0
    4.4542   -2.9667    0.0000 O   0  0  0  0  0  0  0  0  0  0  0  0
    3.8042   -1.8417    0.0000 O   0  0  0  0  0  0  0  0  0  0  0  0
    2.5000   -1.8417    0.0000 S   0  0  0  0  0  0  0  0  0  0  0  0
    3.1500   -1.4625    0.0000 Hg  0  0  0  0  0  2  0  0  0  0  0  0
    3.1542   -3.7250    0.0000 C   0  0  0  0  0  0  0  0  0  0  0  0
    5.3917   -2.9917    0.0000 Na  0  0  0  0  0 15  0  0  0  0  0  0
    1.8542   -2.9667    0.0000 C   0  0  0  0  0  0  0  0  0  0  0  0
    3.1500   -0.7125    0.0000 C   0  0  0  0  0  0  0  0  0  0  0  0
    2.5000   -4.1000    0.0000 C   0  0  0  0  0  0  0  0  0  0  0  0
    3.7917   -0.3375    0.0000 C   0  0  0  0  0  0  0  0  0  0  0  0
    1.8542   -3.7250    0.0000 C   0  0  0  0  0  0  0  0  0  0  0  0
  2  1  1  0
  3  1  2  0
  4  2  1  0
  5  2  2  0
  6  3  1  0
  7  6  1  0
  8  1  1  0
 10  3  1  0
 11  7  1  0
 12  8  2  0
 13 11  1  0
 14 12  1  0
 14 10  2  0
M  CHG  2   4  -1   9   1
M  END
>  <ID>  (1229) 


>  <MOLENAME>  (1229) 
THIMEROSAL

>  <therap>  (1229) 
antiinfective, preservative

>  <ref>  (1229) 
Clin Toxicol 4:185 (1971); Drug Saf 28:89 (2005)

>  <cas#>  (1229) 
54-64-8

>  <source>  (1229) 
synthetic

>  <status>  (1229) 
USP, INN, BAN, JAN

>  <tradename>  (1229) 
MERTHIOLATE

>  <SMILES>  (1229) 
CC[Hg]Sc1ccccc1C(=O)[O-].[Na+]

>  <standardized_failed>  (1229) 
True

$$$$

     RDKit          2D

 23 25  0  0  0  0  0  0  0  0999 V2000
    3.2292   -1.5167    0.0000 C   0  0  0  0  0  0  0  0  0  0  0  0
    2.5792   -1.8917    0.0000 C   0  0  0  0  0  0  0  0  0  0  0  0
    3.2292   -0.7667    0.0000 C   0  0  0  0  0  0  0  0  0  0  0  0
    3.8875   -1.8917    0.0000 C   0  0  0  0  0  0  0  0  0  0  0  0
    2.5792   -0.3917    0.0000 O   0  0  0  0  0  0  0  0  0  0  0  0
    1.9375   -1.5167    0.0000 C   0  0  0  0  0  0  0  0  0  0  0  0
    1.9375   -0.7667    0.0000 C   0  0  0  0  0  0  0  0  0  0  0  0
    3.8875   -0.3875    0.0000 O   0  0  0  0  0  0  0  0  0  0  0  0
    4.5292   -1.5167    0.0000 C   0  0  0  0  0  0  0  0  0  0  0  0
    3.8875   -2.6417    0.0000 C   0  0  0  0  0  0  0  0  0  0  0  0
    2.5792   -2.6417    0.0000 O   0  0  0  0  0  0  0  0  0  0  0  0
    5.1792   -1.8917    0.0000 C   0  0  0  0  0  0  0  0  0  0  0  0
    5.8292   -1.5167    0.0000 O   0  0  0  0  0  0  0  0  0  0  0  0
    1.2917   -1.8917    0.0000 C   0  0  0  0  0  0  0  0  0  0  0  0
    1.2917   -0.3917    0.0000 C   0  0  0  0  0  0  0  0  0  0  0  0
    3.2417   -3.0167    0.0000 C   0  0  0  0  0  0  0  0  0  0  0  0
    4.5375   -3.0167    0.0000 C   0  0  0  0  0  0  0  0  0  0  0  0
    5.1792   -2.6417    0.0000 C   0  0  0  0  0  0  0  0  0  0  0  0
    0.6417   -1.5167    0.0000 C   0  0  0  0  0  0  0  0  0  0  0  0
    0.6417   -0.7667    0.0000 C   0  0  0  0  0  0  0  0  0  0  0  0
    4.5375   -3.7667    0.0000 C   0  0  0  0  0  0  0  0  0  0  0  0
    3.2417   -3.7667    0.0000 C   0  0  0  0  0  0  0  0  0  0  0  0
    3.8875   -4.1417    0.0000 C   0  0  0  0  0  0  0  0  0  0  0  0
  2  1  2  0
  3  1  1  0
  4  1  1  0
  5  3  1  0
  6  2  1  0
  7  5  1  0
  8  3  2  0
  9  4  1  0
 10  4  1  0
 11  2  1  0
 12  9  1  0
 13 12  2  0
 14  6  2  0
 15  7  2  0
 16 10  2  0
 17 10  1  0
 18 12  1  0
 19 14  1  0
 20 15  1  0
 21 17  2  0
 22 16  1  0
 23 21  1  0
  7  6  1  0
 23 22  2  0
 19 20  2  0
M  END
>  <ID>  (1230) 


>  <MOLENAME>  (1230) 
WARFARIN

>  <therap>  (1230) 
anticoagulant, rodenticide

>  <ref>  (1230) 
Pharmacol Res Commun 10:445 (1978); Chest 102:312S (1992)

>  <cas#>  (1230) 
81-81-2, 2610-86-8 [warfarin potassium], 129-06-6 [warfarin sodium]

>  <source>  (1230) 
synthetic

>  <status>  (1230) 
USP, INN, BAN, JAN

>  <tradename>  (1230) 
COUMADIN

>  <SMILES>  (1230) 
CC(=O)CC(c1ccccc1)c1c(O)c2ccccc2oc1=O

>  <standardized_failed>  (1230) 
False

$$$$

     RDKit          2D

 11 11  0  0  0  0  0  0  0  0999 V2000
    2.2292   -1.2667    0.0000 C   0  0  0  0  0  0  0  0  0  0  0  0
    1.1042   -0.6167    0.0000 Hg  0  0  0  0  0  2  0  0  0  0  0  0
    1.4792   -1.2667    0.0000 O   0  0  0  0  0  0  0  0  0  0  0  0
    2.6042   -0.6167    0.0000 O   0  0  0  0  0  0  0  0  0  0  0  0
    0.3542   -0.6167    0.0000 C   0  0  0  0  0  0  0  0  0  0  0  0
    2.6042   -1.9167    0.0000 C   0  0  0  0  0  0  0  0  0  0  0  0
   -0.0208    0.0333    0.0000 C   0  0  0  0  0  0  0  0  0  0  0  0
   -0.0208   -1.2667    0.0000 C   0  0  0  0  0  0  0  0  0  0  0  0
   -0.7708   -1.2667    0.0000 C   0  0  0  0  0  0  0  0  0  0  0  0
   -0.7750    0.0333    0.0000 C   0  0  0  0  0  0  0  0  0  0  0  0
   -1.1500   -0.6167    0.0000 C   0  0  0  0  0  0  0  0  0  0  0  0
  2  3  1  0
  3  1  1  0
  4  1  2  0
  5  2  1  0
  6  1  1  0
  7  5  2  0
  8  5  1  0
  9  8  2  0
 10  7  1  0
 11  9  1  0
 10 11  2  0
M  END
>  <ID>  (1231) 


>  <MOLENAME>  (1231) 
PHENYLMERCURIC ACETATE

>  <therap>  (1231) 
antifungal, antimicrobial

>  <ref>  (1231) 
Toxicol Appl Pharmacol 2:344 (1960)

>  <cas#>  (1231) 
62-38-4

>  <source>  (1231) 
synthetic

>  <status>  (1231) 
USAN, NF

>  <tradename>  (1231) 
AGROSAN

>  <SMILES>  (1231) 
CC(=O)O[Hg]c1ccccc1

>  <standardized_failed>  (1231) 
True

$$$$

     RDKit          2D

 25 31  0  0  0  0  0  0  0  0999 V2000
    6.0667   -9.8292    0.0000 C   0  0  0  0  0  0  0  0  0  0  0  0
    5.2792  -10.9042    0.0000 N   0  0  0  0  0  0  0  0  0  0  0  0
    6.0667  -10.6542    0.0000 C   0  0  0  0  0  0  0  0  0  0  0  0
    6.7792  -11.0667    0.0000 C   0  0  0  0  0  0  0  0  0  0  0  0
    5.1042  -11.7125    0.0000 C   0  0  0  0  0  0  0  0  0  0  0  0
    6.7792   -9.4167    0.0000 C   0  0  0  0  0  0  0  0  0  0  0  0
    4.8000  -10.2375    0.0000 C   0  0  0  0  0  0  0  0  0  0  0  0
    5.2792   -9.5750    0.0000 C   0  0  0  0  0  0  0  0  0  0  0  0
    7.4917  -10.6542    0.0000 C   0  0  0  0  0  0  0  0  0  0  0  0
    6.6042   -8.6042    0.0000 N   0  0  0  0  0  0  0  0  0  0  0  0
    6.6542  -11.8875    0.0000 C   0  0  0  0  0  0  0  0  0  0  0  0
    8.1667   -9.5250    0.0000 C   0  0  0  0  0  0  0  0  0  0  0  0
    5.8917  -12.1917    0.0000 C   0  0  0  0  0  0  0  0  0  0  0  0
    7.4917   -9.8292    0.0000 C   0  0  0  0  0  0  0  0  0  0  0  0
    7.2042   -9.3042    0.0000 C   0  0  0  0  0  0  0  0  0  0  0  0
    5.4500   -9.2667    0.0000 C   0  0  0  0  0  0  0  0  0  0  0  0
    5.7792   -8.5292    0.0000 C   0  0  0  0  0  0  0  0  0  0  0  0
    7.7625  -11.0542    0.0000 O   0  0  0  0  0  0  0  0  0  0  0  0
    4.3167  -11.9792    0.0000 O   0  0  0  0  0  0  0  0  0  0  0  0
    8.8875   -9.9917    0.0000 C   0  0  0  0  0  0  0  0  0  0  0  0
    8.6042  -10.8042    0.0000 C   0  0  0  0  0  0  0  0  0  0  0  0
    3.9792  -10.1500    0.0000 C   0  0  0  0  0  0  0  0  0  0  0  0
    4.9417   -8.8167    0.0000 C   0  0  0  0  0  0  0  0  0  0  0  0
    3.6417   -9.3917    0.0000 C   0  0  0  0  0  0  0  0  0  0  0  0
    4.1250   -8.7292    0.0000 C   0  0  0  0  0  0  0  0  0  0  0  0
  2  3  1  0
  3  1  1  0
  4  3  1  0
  5  2  1  0
  6  1  1  0
  7  8  2  0
  8  1  1  0
  9 14  1  6
 10  6  1  0
  4 11  1  1
  9 12  1  0
 13 11  1  0
 14  6  1  0
 15 10  1  0
  1 16  1  1
 17 16  1  0
 18 11  1  0
 19  5  2  0
 20 12  2  0
 21 18  1  0
 22  7  1  0
 23  8  1  0
 24 25  1  0
 25 23  2  0
 10 17  1  0
  2  7  1  0
  9  4  1  0
 12 15  1  0
 24 22  2  0
 13  5  1  0
 20 21  1  0
M  END
>  <ID>  (1232) 


>  <MOLENAME>  (1232) 
STRYCHNINE

>  <therap>  (1232) 
central stimulant

>  <ref>  (1232) 
Arzneim Forsch 14:996 (1964); Curr Vet Ther 6:115 (1977); Anal Profiles Drug Subs 15:563 (1986)

>  <cas#>  (1232) 
57-24-9

>  <source>  (1232) 
Strychnos nux-vomica, Strychnos spp

>  <status>  (1232) 
NF-X

>  <tradename>  (1232) 
nan

>  <SMILES>  (1232) 
O=C1CC2OCC=C3CN4CC[C@]56c7c(cccc7)N1C5[C@H]2[C@H]3CC46

>  <standardized_failed>  (1232) 
False

$$$$

     RDKit          2D

 17 17  0  0  0  0  0  0  0  0999 V2000
    4.7792   -3.1667    0.0000 N   0  0  0  0  0  0  0  0  0  0  0  0
    0.3667   -0.7417    0.0000 C   0  0  0  0  0  0  0  0  0  0  0  0
    5.6000   -3.0792    0.0000 C   0  0  0  0  0  0  0  0  0  0  0  0
   -0.4583   -0.7417    0.0000 N   0  0  0  0  0  0  0  0  0  0  0  0
    4.2917   -2.4917    0.0000 C   0  0  0  0  0  0  0  0  0  0  0  0
    0.6167    0.0375    0.0000 C   0  0  0  0  0  0  0  0  0  0  0  0
    6.4250   -2.9917    0.0000 N   0  0  0  0  0  0  0  0  0  0  0  0
   -0.7083    0.0375    0.0000 C   0  0  0  0  0  0  0  0  0  0  0  0
   -0.0500    0.5208    0.0000 N   0  0  0  0  0  0  0  0  0  0  0  0
    4.6292   -1.7417    0.0000 N   0  0  0  0  0  0  0  0  0  0  0  0
    3.4667   -2.5792    0.0000 N   0  0  0  0  0  0  0  0  0  0  0  0
    0.8542   -1.4167    0.0000 C   0  0  0  0  0  0  0  0  0  0  0  0
    1.6750   -1.3292    0.0000 S   0  0  0  0  0  0  0  0  0  0  0  0
    1.4042    0.2958    0.0000 C   0  0  0  0  0  0  0  0  0  0  0  0
    2.9792   -1.9125    0.0000 C   0  0  0  0  0  0  0  0  0  0  0  0
    4.1417   -1.0667    0.0000 C   0  0  0  0  0  0  0  0  0  0  0  0
    2.1625   -2.0000    0.0000 C   0  0  0  0  0  0  0  0  0  0  0  0
  2 12  1  0
  3  1  1  0
  4  2  1  0
  5  1  2  0
  6  2  2  0
  7  3  3  0
  8  4  2  0
  9  6  1  0
 10  5  1  0
 11  5  1  0
 12 13  1  0
 13 17  1  0
 14  6  1  0
 15 11  1  0
 16 10  1  0
 17 15  1  0
  8  9  1  0
M  END
>  <ID>  (1233) 


>  <MOLENAME>  (1233) 
CIMETIDINE

>  <therap>  (1233) 
antiulcer

>  <ref>  (1233) 
J Int Med Res 3:86 (1975); Br J Pharmacol 53:435p (1975); Scand J Gasroenterol 21 Suppl 121:1 (1986)

>  <cas#>  (1233) 
51481-61-9

>  <source>  (1233) 
synthetic

>  <status>  (1233) 
USP, INN, BAN, JAN

>  <tradename>  (1233) 
TAGAMET

>  <SMILES>  (1233) 
CN/C(=N\C#N)NCCSCc1c(C)[nH]cn1

>  <standardized_failed>  (1233) 
False

$$$$

     RDKit          2D

 29 35  0  0  0  0  0  0  0  0999 V2000
    3.9667   -1.6375    0.0000 C   0  0  0  0  0  0  0  0  0  0  0  0
    3.2750   -2.8042    0.0000 N   0  0  0  0  0  0  0  0  0  0  0  0
    3.9625   -2.4167    0.0000 C   0  0  0  0  0  0  0  0  0  0  0  0
    2.6042   -2.4250    0.0000 C   0  0  0  0  0  0  0  0  0  0  0  0
    4.6417   -2.8167    0.0000 C   0  0  0  0  0  0  0  0  0  0  0  0
    2.6000   -1.6375    0.0000 C   0  0  0  0  0  0  0  0  0  0  0  0
    3.2667   -3.5917    0.0000 C   0  0  0  0  0  0  0  0  0  0  0  0
    4.6792   -1.2917    0.0000 C   0  0  0  0  0  0  0  0  0  0  0  0
    5.3292   -2.4292    0.0000 C   0  0  0  0  0  0  0  0  0  0  0  0
    5.2125   -0.7750    0.0000 N   0  0  0  0  0  0  0  0  0  0  0  0
    4.6375   -3.6042    0.0000 C   0  0  0  0  0  0  0  0  0  0  0  0
    5.9292   -2.0875    0.0000 C   0  0  0  0  0  0  0  0  0  0  0  0
    3.9500   -4.0000    0.0000 C   0  0  0  0  0  0  0  0  0  0  0  0
    1.9167   -2.8167    0.0000 C   0  0  0  0  0  0  0  0  0  0  0  0
    5.3292   -1.6375    0.0000 C   0  0  0  0  0  0  0  0  0  0  0  0
    1.9167   -1.2417    0.0000 C   0  0  0  0  0  0  0  0  0  0  0  0
    5.9292   -1.2500    0.0000 C   0  0  0  0  0  0  0  0  0  0  0  0
    3.6917   -0.8000    0.0000 C   0  0  0  0  0  0  0  0  0  0  0  0
    1.2417   -2.4250    0.0000 C   0  0  0  0  0  0  0  0  0  0  0  0
    1.2417   -1.6375    0.0000 C   0  0  0  0  0  0  0  0  0  0  0  0
    4.5792   -0.2042    0.0000 C   0  0  0  0  0  0  0  0  0  0  0  0
    5.3167   -4.0042    0.0000 O   0  0  0  0  0  0  0  0  0  0  0  0
    2.5792   -3.9875    0.0000 O   0  0  0  0  0  0  0  0  0  0  0  0
    6.6042   -2.4750    0.0000 C   0  0  0  0  0  0  0  0  0  0  0  0
    6.6042   -3.2625    0.0000 C   0  0  0  0  0  0  0  0  0  0  0  0
    0.5542   -2.8167    0.0000 O   0  0  0  0  0  0  0  0  0  0  0  0
    0.5542   -1.2417    0.0000 O   0  0  0  0  0  0  0  0  0  0  0  0
   -0.1250   -2.4250    0.0000 C   0  0  0  0  0  0  0  0  0  0  0  0
    0.5417   -0.4542    0.0000 C   0  0  0  0  0  0  0  0  0  0  0  0
  2  3  1  0
  3  1  1  0
  4  6  2  0
  5  3  1  0
  6  1  1  0
  7  2  1  0
  8  1  1  0
  9 15  1  6
 10  8  1  0
  5 11  1  1
 12  9  1  0
 13 11  1  0
 14  4  1  0
  8 15  1  1
 16  6  1  0
 17 10  1  0
  1 18  1  1
 19 20  1  0
 20 16  2  0
 21 18  1  0
 22 11  1  0
 23  7  2  0
 24 12  2  0
 25 22  1  0
 26 19  1  0
 27 20  1  0
 28 26  1  0
 29 27  1  0
 10 21  1  0
  4  2  1  0
  5  9  1  0
 12 17  1  0
 19 14  2  0
  7 13  1  0
 24 25  1  0
M  END
>  <ID>  (1234) 


>  <MOLENAME>  (1234) 
BRUCINE

>  <therap>  (1234) 
central stimulant

>  <ref>  (1234) 
Progress in Organic Chemistry 1: 1 (1952); Acta Pharmacologica Sinica  28:1851 (2007)

>  <cas#>  (1234) 
4845-99-2, 357-57-3 [brucine]

>  <source>  (1234) 
Strychnos nux-vomica

>  <status>  (1234) 
NF-IX

>  <tradename>  (1234) 
nan

>  <SMILES>  (1234) 
COc1cc2c(cc1OC)[C@@]13CCN4CC5=CCOC6CC(=O)N2C1[C@H]6[C@H]5C[C@H]43

>  <standardized_failed>  (1234) 
False

$$$$

     RDKit          2D

 33 35  0  0  0  0  0  0  0  0999 V2000
    6.4000   -2.6583    0.0000 N   0  0  0  0  0  0  0  0  0  0  0  0
    5.6792   -2.2542    0.0000 C   0  0  0  0  0  0  0  0  0  0  0  0
    5.2667   -2.9667    0.0000 C   0  0  0  0  0  0  0  0  0  0  0  0
    5.9875   -3.3708    0.0000 C   0  0  0  0  0  0  0  0  0  0  0  0
    7.2167   -2.6542    0.0000 C   0  0  0  0  0  0  0  0  0  0  0  0
    7.6292   -3.3667    0.0000 C   0  0  0  0  0  0  0  0  0  0  0  0
    2.8750   -3.6208    0.0000 C   0  0  0  0  0  0  0  0  0  0  0  0
    3.4625   -4.2000    0.0000 C   0  0  0  0  0  0  0  0  0  0  0  0
    2.0625   -3.7542    0.0000 N   0  0  0  0  0  0  0  0  0  0  0  0
    4.4667   -3.1833    0.0000 N   0  0  0  0  0  0  0  0  0  0  0  0
    4.2583   -3.9833    0.0000 C   0  0  0  0  0  0  0  0  0  0  0  0
    6.4000   -4.0875    0.0000 S   0  0  0  0  0  0  0  0  0  0  0  0
    1.6833   -3.0208    0.0000 C   0  0  0  0  0  0  0  0  0  0  0  0
    8.8792   -4.0708    0.0000 N   0  0  0  0  0  0  0  0  0  0  0  0
    3.0000   -2.8083    0.0000 C   0  0  0  0  0  0  0  0  0  0  0  0
    2.2667   -2.4375    0.0000 S   0  0  0  0  0  0  0  0  0  0  0  0
    7.6292   -1.9375    0.0000 C   0  0  0  0  0  0  0  0  0  0  0  0
    8.4625   -3.3625    0.0000 C   0  0  0  0  0  0  0  0  0  0  0  0
    7.2208   -4.0875    0.0000 C   0  0  0  0  0  0  0  0  0  0  0  0
    3.2500   -4.9958    0.0000 N   0  0  0  0  0  0  0  0  0  0  0  0
    5.4500   -1.4500    0.0000 O   0  0  0  0  0  0  0  0  0  0  0  0
    4.8458   -4.5667    0.0000 O   0  0  0  0  0  0  0  0  0  0  0  0
    7.2083   -1.2333    0.0000 O   0  0  0  0  0  0  0  0  0  0  0  0
   10.7083   -4.0792    0.0000 Cl  0  0  0  0  0  0  0  0  0  0  0  0
    0.8667   -2.8958    0.0000 N   0  0  0  0  0  0  0  0  0  0  0  0
    8.4542   -1.9333    0.0000 O   0  0  0  0  0  0  0  0  0  0  0  0
    2.4542   -5.2125    0.0000 O   0  0  0  0  0  0  0  0  0  0  0  0
    9.4625   -3.4792    0.0000 C   0  0  0  0  0  0  0  0  0  0  0  0
    9.7042   -4.1500    0.0000 C   0  0  0  0  0  0  0  0  0  0  0  0
    8.5542   -4.8292    0.0000 C   0  0  0  0  0  0  0  0  0  0  0  0
    2.2458   -6.0125    0.0000 C   0  0  0  0  0  0  0  0  0  0  0  0
    9.8833   -4.9583    0.0000 C   0  0  0  0  0  0  0  0  0  0  0  0
    9.1708   -5.3750    0.0000 C   0  0  0  0  0  0  0  0  0  0  0  0
  2  1  1  0
  3  2  1  0
  4  1  1  0
  5  1  1  0
  6  5  2  0
  7  8  1  0
  8 11  1  0
  9  7  1  0
 10  3  1  0
 11 10  1  0
 12  4  1  0
 13  9  2  0
 14 18  1  0
 15  7  2  0
 16 15  1  0
 17  5  1  0
 18  6  1  0
 19  6  1  0
 20  8  2  0
 21  2  2  0
 22 11  2  0
 23 17  2  0
 25 13  1  0
 26 17  1  0
 27 20  1  0
 28 14  1  0
 29 14  1  0
 30 14  1  0
 31 27  1  0
 32 29  1  0
 33 30  1  0
  3  4  1  0
 12 19  1  0
 32 33  1  0
 13 16  1  0
M  CHG  2  14   1  24  -1
M  END
>  <ID>  (1235) 


>  <MOLENAME>  (1235) 
CEFEPIME HYDROCHLORIDE

>  <therap>  (1235) 
antibacterial

>  <ref>  (1235) 
Antimicrob Agents Chemother 26:585 (1984); 31:55 (1987); 34:1954 (1990)

>  <cas#>  (1235) 
123171-59-5

>  <source>  (1235) 
semisynthetic; BMY-28142

>  <status>  (1235) 
USP

>  <tradename>  (1235) 
MAXIPIME

>  <SMILES>  (1235) 
CO/N=C(/C(=O)NC1C(=O)N2C(C(=O)O)=C(C[N+]3(C)CCCC3)CSC12)c1csc(N)n1

>  <standardized_failed>  (1235) 
False

$$$$

     RDKit          2D

  5  2  0  0  0  0  0  0  0  0999 V2000
    6.6542   -5.0667    0.0000 Pt  0  0  0  0  0  2  0  0  0  0  0  0
    7.4167   -5.8292    0.0000 Cl  0  0  0  0  0  0  0  0  0  0  0  0
    7.4500   -4.4792    0.0000 Cl  0  0  0  0  0  0  0  0  0  0  0  0
    5.5500   -4.4000    0.0000 N   0  0  0  0  0  0  0  0  0  0  0  0
    5.5792   -5.8375    0.0000 N   0  0  0  0  0  0  0  0  0  0  0  0
  2  1  1  0
  3  1  1  0
M  END
>  <ID>  (1236) 


>  <MOLENAME>  (1236) 
CISPLATIN

>  <therap>  (1236) 
antineoplastic, convulsant

>  <ref>  (1236) 
J Natl Cancer Inst 99:828 (2007); Lung Cancer  59:1 (2008)

>  <cas#>  (1236) 
15663-27-1

>  <source>  (1236) 
synthetic

>  <status>  (1236) 
USP, INN, BAN, JAN

>  <tradename>  (1236) 
PLATINOL

>  <SMILES>  (1236) 
Cl[Pt]Cl.N.N

>  <standardized_failed>  (1236) 
True

$$$$

     RDKit          2D

 20 21  0  0  0  0  0  0  0  0999 V2000
    2.8167   -1.5125    0.0000 C   0  0  0  0  0  0  0  0  0  0  0  0
    2.8167   -0.6875    0.0000 C   0  0  0  0  0  0  0  0  0  0  0  0
    6.3792   -2.7542    0.0000 N   0  0  0  0  0  0  0  0  0  0  0  0
    5.6667   -3.1625    0.0000 C   0  0  0  0  0  0  0  0  0  0  0  0
    6.3875   -1.9292    0.0000 C   0  0  0  0  0  0  0  0  0  0  0  0
    2.1042   -0.2667    0.0000 C   0  0  0  0  0  0  0  0  0  0  0  0
    3.5292   -1.9250    0.0000 C   0  0  0  0  0  0  0  0  0  0  0  0
    2.1042   -1.9167    0.0000 C   0  0  0  0  0  0  0  0  0  0  0  0
    4.9625   -1.9250    0.0000 C   0  0  0  0  0  0  0  0  0  0  0  0
    4.2417   -1.5125    0.0000 C   0  0  0  0  0  0  0  0  0  0  0  0
    3.5292   -0.2750    0.0000 O   0  0  0  0  0  0  0  0  0  0  0  0
    1.3917   -0.6875    0.0000 C   0  0  0  0  0  0  0  0  0  0  0  0
    7.1042   -1.5167    0.0000 O   0  0  0  0  0  0  0  0  0  0  0  0
    5.6625   -3.9875    0.0000 O   0  0  0  0  0  0  0  0  0  0  0  0
    5.6750   -1.5042    0.0000 C   0  0  0  0  0  0  0  0  0  0  0  0
    4.9542   -2.7500    0.0000 C   0  0  0  0  0  0  0  0  0  0  0  0
    1.3917   -1.5125    0.0000 C   0  0  0  0  0  0  0  0  0  0  0  0
    3.5292   -2.7500    0.0000 O   0  0  0  0  0  0  0  0  0  0  0  0
    2.1000    0.5583    0.0000 C   0  0  0  0  0  0  0  0  0  0  0  0
    0.6792   -1.9167    0.0000 C   0  0  0  0  0  0  0  0  0  0  0  0
  2  1  1  0
  3  4  1  0
  4 16  1  0
  5 15  1  0
  6  2  1  0
  1  7  1  0
  1  8  1  6
  9 10  1  0
 10  7  1  0
 11  2  2  0
 12 17  1  0
 13  5  2  0
 14  4  2  0
 15  9  1  0
 16  9  1  0
 17  8  1  0
  7 18  1  1
  6 19  1  6
 17 20  1  1
  6 12  1  0
  3  5  1  0
M  END
>  <ID>  (1237) 


>  <MOLENAME>  (1237) 
CYCLOHEXIMIDE

>  <therap>  (1237) 
antipsoriatic, protein synthesis inhibitor

>  <ref>  (1237) 
Apoptosis (1997), 2(3), 257-264; Biochim. Biophys. Acta (1966), 119(1), 120-9; J. Am. Chem. Soc. (1947), 69(2), 474

>  <cas#>  (1237) 
66-81-9

>  <source>  (1237) 
synthetic; U-4527

>  <status>  (1237) 
USAN, INN

>  <tradename>  (1237) 
nan

>  <SMILES>  (1237) 
C[C@H]1C[C@H](C)C(=O)[C@H]([C@H](O)CC2CC(=O)NC(=O)C2)C1

>  <standardized_failed>  (1237) 
False

$$$$

     RDKit          2D

 45 45  0  0  0  0  0  0  0  0999 V2000
    0.1000   -1.2375    0.0000 C   0  0  0  0  0  0  0  0  0  0  0  0
   12.3583   -1.1625    0.0000 C   0  0  0  0  0  0  0  0  0  0  0  0
   11.1958   -2.3292    0.0000 C   0  0  0  0  0  0  0  0  0  0  0  0
    1.2792   -2.3750    0.0000 C   0  0  0  0  0  0  0  0  0  0  0  0
    0.8917   -1.0083    0.0000 C   0  0  0  0  0  0  0  0  0  0  0  0
   12.5708   -1.9542    0.0000 C   0  0  0  0  0  0  0  0  0  0  0  0
   -0.0958   -2.0292    0.0000 C   0  0  0  0  0  0  0  0  0  0  0  0
   11.5583   -0.9542    0.0000 C   0  0  0  0  0  0  0  0  0  0  0  0
    1.8750   -2.9417    0.0000 C   0  0  0  0  0  0  0  0  0  0  0  0
   10.6167   -2.9125    0.0000 C   0  0  0  0  0  0  0  0  0  0  0  0
    0.4917   -2.6000    0.0000 C   0  0  0  0  0  0  0  0  0  0  0  0
    1.4833   -1.5833    0.0000 C   0  0  0  0  0  0  0  0  0  0  0  0
   11.9917   -2.5417    0.0000 C   0  0  0  0  0  0  0  0  0  0  0  0
   10.9792   -1.5375    0.0000 C   0  0  0  0  0  0  0  0  0  0  0  0
    7.0750   -3.4417    0.0000 N   0  0  0  0  0  0  0  0  0  0  0  0
    5.4375   -3.4125    0.0000 N   0  0  0  0  0  0  0  0  0  0  0  0
    1.6708   -3.7458    0.0000 O   0  0  0  0  0  0  0  0  0  0  0  0
   10.8333   -3.7083    0.0000 O   0  0  0  0  0  0  0  0  0  0  0  0
    5.8792   -3.8875    0.0000 C   0  0  0  0  0  0  0  0  0  0  0  0
    6.6292   -3.8875    0.0000 C   0  0  0  0  0  0  0  0  0  0  0  0
   -0.4917   -0.6625    0.0000 O   0  0  0  0  0  0  0  0  0  0  0  0
   12.9375   -0.5750    0.0000 O   0  0  0  0  0  0  0  0  0  0  0  0
    6.2750   -2.3667    0.0000 C   0  0  0  0  0  0  0  0  0  0  0  0
   -0.8917   -2.2542    0.0000 O   0  0  0  0  0  0  0  0  0  0  0  0
   11.3375   -0.1583    0.0000 O   0  0  0  0  0  0  0  0  0  0  0  0
    1.0958   -0.2083    0.0000 O   0  0  0  0  0  0  0  0  0  0  0  0
   13.3708   -2.1667    0.0000 O   0  0  0  0  0  0  0  0  0  0  0  0
    9.8250   -2.7000    0.0000 O   0  0  0  0  0  0  0  0  0  0  0  0
    2.6667   -2.7167    0.0000 O   0  0  0  0  0  0  0  0  0  0  0  0
    5.5750   -2.6917    0.0000 C   0  0  0  0  0  0  0  0  0  0  0  0
    6.9542   -2.7167    0.0000 C   0  0  0  0  0  0  0  0  0  0  0  0
    7.6917   -4.5375    0.0000 Cl  0  0  0  0  0  0  0  0  0  0  0  0
    4.6917   -4.5375    0.0000 Cl  0  0  0  0  0  0  0  0  0  0  0  0
    4.6417   -3.6375    0.0000 C   0  0  0  0  0  0  0  0  0  0  0  0
    7.8667   -3.6542    0.0000 C   0  0  0  0  0  0  0  0  0  0  0  0
    4.0500   -3.0667    0.0000 C   0  0  0  0  0  0  0  0  0  0  0  0
    8.4500   -3.0667    0.0000 C   0  0  0  0  0  0  0  0  0  0  0  0
    3.2542   -3.2917    0.0000 C   0  0  0  0  0  0  0  0  0  0  0  0
    9.2417   -3.2792    0.0000 C   0  0  0  0  0  0  0  0  0  0  0  0
   13.7333   -0.7833    0.0000 C   0  0  0  0  0  0  0  0  0  0  0  0
   -0.2917    0.1375    0.0000 C   0  0  0  0  0  0  0  0  0  0  0  0
   -1.4833   -1.6833    0.0000 C   0  0  0  0  0  0  0  0  0  0  0  0
    1.8875    0.0167    0.0000 C   0  0  0  0  0  0  0  0  0  0  0  0
   11.9167    0.4292    0.0000 C   0  0  0  0  0  0  0  0  0  0  0  0
   13.5875   -2.9625    0.0000 C   0  0  0  0  0  0  0  0  0  0  0  0
  2  8  2  0
  3 10  1  0
  4 11  1  0
  5  1  2  0
  6 13  2  0
  7  1  1  0
  8 14  1  0
  9  4  1  0
 10 28  1  0
 11  7  2  0
 12  5  1  0
 13  3  1  0
 14  3  2  0
 15 20  1  0
 16 34  1  0
 17  9  2  0
 18 10  2  0
 19 16  1  0
 20 19  1  0
 21  1  1  0
 22  2  1  0
 23 30  1  0
 24  7  1  0
 25  8  1  0
 26  5  1  0
 27  6  1  0
 28 39  1  0
 29  9  1  0
 30 16  1  0
 31 23  1  0
 34 36  1  0
 35 15  1  0
 36 38  1  0
 37 35  1  0
 38 29  1  0
 39 37  1  0
 40 22  1  0
 41 21  1  0
 42 24  1  0
 43 26  1  0
 44 25  1  0
 45 27  1  0
 12  4  2  0
 31 15  1  0
  2  6  1  0
M  END
>  <ID>  (1238) 


>  <MOLENAME>  (1238) 
DILAZEP DIHYDROCHLORIDE

>  <therap>  (1238) 
vasodilator, platelet aggregation inhibitor

>  <ref>  (1238) 
J. Pharm. Pharmacol. (1983), 35(7), 434-9; Life Sci. (1991), 49(18), PL129-33; J. Pharmacol. Exp. Ther. (1991), 258(3), 767-71

>  <cas#>  (1238) 
35898-87-4

>  <source>  (1238) 
synthetic

>  <status>  (1238) 
INN, JAN

>  <tradename>  (1238) 
nan

>  <SMILES>  (1238) 
COc1cc(C(=O)OCCCN2CCCN(CCCOC(=O)c3cc(OC)c(OC)c(OC)c3)CC2)cc(OC)c1OC

>  <standardized_failed>  (1238) 
False

$$$$

     RDKit          2D

 15 16  0  0  0  0  0  0  0  0999 V2000
    5.3500   -0.5292    0.0000 C   0  0  0  0  0  0  0  0  0  0  0  0
    4.7250   -1.0875    0.0000 N   0  0  0  0  0  0  0  0  0  0  0  0
    6.0625   -0.9417    0.0000 N   0  0  0  0  0  0  0  0  0  0  0  0
    5.0625   -1.8292    0.0000 C   0  0  0  0  0  0  0  0  0  0  0  0
    5.8875   -1.7500    0.0000 C   0  0  0  0  0  0  0  0  0  0  0  0
    5.5250    0.2833    0.0000 S   0  0  0  0  0  0  0  0  0  0  0  0
    4.7125   -2.5792    0.0000 C   0  0  0  0  0  0  0  0  0  0  0  0
    6.6750   -0.3875    0.0000 C   0  0  0  0  0  0  0  0  0  0  0  0
    6.3375    0.3625    0.0000 C   0  0  0  0  0  0  0  0  0  0  0  0
    7.6375   -1.2375    0.0000 Cl  0  0  0  0  0  0  0  0  0  0  0  0
    3.9000   -2.6625    0.0000 C   0  0  0  0  0  0  0  0  0  0  0  0
    5.2000   -3.2542    0.0000 C   0  0  0  0  0  0  0  0  0  0  0  0
    3.5500   -3.4125    0.0000 C   0  0  0  0  0  0  0  0  0  0  0  0
    4.8500   -4.0042    0.0000 C   0  0  0  0  0  0  0  0  0  0  0  0
    4.0250   -4.0792    0.0000 C   0  0  0  0  0  0  0  0  0  0  0  0
  2  1  2  0
  3  1  1  0
  4  2  1  0
  5  3  1  0
  6  1  1  0
  4  7  1  0
  8  3  1  0
  9  6  1  0
 11  7  2  0
 12  7  1  0
 13 11  1  0
 14 12  2  0
 15 13  2  0
  9  8  1  0
  4  5  1  6
 14 15  1  0
M  END
>  <ID>  (1239) 


>  <MOLENAME>  (1239) 
LEVAMISOLE HYDROCHLORIDE

>  <therap>  (1239) 
immunomodulator

>  <ref>  (1239) 
Clin. Pharm. (1991), 10(2), 95-109; Crit. Rev. Oncol./Hematol. (1984), 1(3), 259-94; J. Rheumatol.. Suppl. (1978), 4115-21

>  <cas#>  (1239) 
16595-80-5, 14769-73-4 [levamisole]

>  <source>  (1239) 
synthetic; R-12564

>  <status>  (1239) 
USP, INN, BAN

>  <tradename>  (1239) 
ERGAMISOL

>  <SMILES>  (1239) 
c1ccc([C@H]2CN3CCSC3=N2)cc1

>  <standardized_failed>  (1239) 
False

$$$$

     RDKit          2D

 23 22  0  0  0  0  0  0  0  0999 V2000
    3.9250   -2.3042    0.0000 S   0  0  0  0  0  0  0  0  0  0  0  0
    7.4375   -2.3042    0.0000 S   0  0  0  0  0  0  0  0  0  0  0  0
    3.1000   -2.3042    0.0000 C   0  0  0  0  0  0  0  0  0  0  0  0
    8.2625   -2.3042    0.0000 C   0  0  0  0  0  0  0  0  0  0  0  0
    4.7500   -2.3042    0.0000 O   0  0  0  0  0  0  0  0  0  0  0  0
    6.6167   -2.3042    0.0000 O   0  0  0  0  0  0  0  0  0  0  0  0
    3.9167   -1.4792    0.0000 O   0  0  0  0  0  0  0  0  0  0  0  0
    3.9167   -3.1292    0.0000 O   0  0  0  0  0  0  0  0  0  0  0  0
    7.4417   -1.4792    0.0000 O   0  0  0  0  0  0  0  0  0  0  0  0
    7.4417   -3.1292    0.0000 O   0  0  0  0  0  0  0  0  0  0  0  0
    2.6875   -1.5917    0.0000 C   0  0  0  0  0  0  0  0  0  0  0  0
    2.6875   -3.0167    0.0000 C   0  0  0  0  0  0  0  0  0  0  0  0
    8.6750   -3.0167    0.0000 C   0  0  0  0  0  0  0  0  0  0  0  0
    8.6750   -1.5917    0.0000 C   0  0  0  0  0  0  0  0  0  0  0  0
    1.4542   -2.3042    0.0000 C   0  0  0  0  0  0  0  0  0  0  0  0
    9.9042   -2.3042    0.0000 C   0  0  0  0  0  0  0  0  0  0  0  0
    0.6292   -2.3042    0.0000 N   0  0  0  0  0  0  0  0  0  0  0  0
   10.7292   -2.3042    0.0000 N   0  0  0  0  0  0  0  0  0  0  0  0
    1.8625   -3.0167    0.0000 C   0  0  0  0  0  0  0  0  0  0  0  0
    1.8625   -1.5917    0.0000 C   0  0  0  0  0  0  0  0  0  0  0  0
    9.5000   -3.0167    0.0000 C   0  0  0  0  0  0  0  0  0  0  0  0
    9.5000   -1.5917    0.0000 C   0  0  0  0  0  0  0  0  0  0  0  0
    5.5875   -2.2417    0.0000 Zn  0  0  0  0  0 15  0  0  0  0  0  0
  3  1  1  0
  4  2  1  0
  5  1  1  0
  6  2  1  0
  7  1  2  0
  8  1  2  0
  9  2  2  0
 10  2  2  0
 11  3  2  0
 12  3  1  0
 13  4  2  0
 14  4  1  0
 15 20  2  0
 16 22  1  0
 17 15  1  0
 18 16  1  0
 19 12  2  0
 20 11  1  0
 21 13  1  0
 22 14  2  0
 19 15  1  0
 21 16  2  0
M  CHG  3   5  -1   6  -1  23   2
M  END
>  <ID>  (1240) 


>  <MOLENAME>  (1240) 
SULFANILATE ZINC

>  <therap>  (1240) 
antibacterial

>  <ref>  (1240) 
Ind Eng Chem 35:321 (1943)

>  <cas#>  (1240) 
31884-76-1

>  <source>  (1240) 
synthetic

>  <status>  (1240) 
USAN

>  <tradename>  (1240) 
NIZIN

>  <SMILES>  (1240) 
Nc1ccc(S(=O)(=O)O)cc1

>  <standardized_failed>  (1240) 
False

$$$$

     RDKit          2D

 12 11  0  0  0  0  0  0  0  0999 V2000
    0.7667   -1.6750    0.0000 C   0  0  0  0  0  0  0  0  0  0  0  0
    2.9042   -1.2542    0.0000 C   0  0  0  0  0  0  0  0  0  0  0  0
    2.1917   -1.6667    0.0000 S   0  0  0  0  0  0  0  0  0  0  0  0
    1.4792   -1.2625    0.0000 S   0  0  0  0  0  0  0  0  0  0  0  0
    0.7667   -2.5000    0.0000 S   0  0  0  0  0  0  0  0  0  0  0  0
    2.9000   -0.4292    0.0000 S   0  0  0  0  0  0  0  0  0  0  0  0
    0.0542   -1.2667    0.0000 N   0  0  0  0  0  0  0  0  0  0  0  0
    3.6167   -1.6667    0.0000 N   0  0  0  0  0  0  0  0  0  0  0  0
   -0.6583   -1.6792    0.0000 C   0  0  0  0  0  0  0  0  0  0  0  0
    0.0500   -0.4417    0.0000 C   0  0  0  0  0  0  0  0  0  0  0  0
    3.6167   -2.4917    0.0000 C   0  0  0  0  0  0  0  0  0  0  0  0
    4.3292   -1.2500    0.0000 C   0  0  0  0  0  0  0  0  0  0  0  0
  2  3  1  0
  3  4  1  0
  4  1  1  0
  5  1  2  0
  6  2  2  0
  7  1  1  0
  8  2  1  0
  9  7  1  0
 10  7  1  0
 11  8  1  0
 12  8  1  0
M  END
>  <ID>  (1241) 


>  <MOLENAME>  (1241) 
THIRAM

>  <therap>  (1241) 
antifungal

>  <ref>  (1241) 
Toxicol Appl Pharmacol 14:515 (1969)

>  <cas#>  (1241) 
137-26-8

>  <source>  (1241) 
synthetic; SQ-1489

>  <status>  (1241) 
USAN, INN

>  <tradename>  (1241) 
REZIFILM

>  <SMILES>  (1241) 
CN(C)C(=S)SSC(=S)N(C)C

>  <standardized_failed>  (1241) 
False

$$$$

     RDKit          2D

 16 17  0  0  0  0  0  0  0  0999 V2000
    3.2375   -3.3875    0.0000 C   0  0  0  0  0  0  0  0  0  0  0  0
    2.5208   -3.8000    0.0000 C   0  0  0  0  0  0  0  0  0  0  0  0
    1.8083   -3.3875    0.0000 C   0  0  0  0  0  0  0  0  0  0  0  0
    3.2375   -2.5583    0.0000 C   0  0  0  0  0  0  0  0  0  0  0  0
    2.5208   -2.1458    0.0000 N   0  0  0  0  0  0  0  0  0  0  0  0
    1.8083   -2.5625    0.0000 C   0  0  0  0  0  0  0  0  0  0  0  0
    3.9542   -3.8000    0.0000 C   0  0  0  0  0  0  0  0  0  0  0  0
    4.6667   -4.2125    0.0000 N   0  0  0  0  0  0  0  0  0  0  0  0
    3.9500   -2.1417    0.0000 O   0  0  0  0  0  0  0  0  0  0  0  0
    1.0917   -3.8000    0.0000 C   0  0  0  0  0  0  0  0  0  0  0  0
   -0.3333   -4.6208    0.0000 N   0  0  0  0  0  0  0  0  0  0  0  0
    1.0958   -2.1500    0.0000 C   0  0  0  0  0  0  0  0  0  0  0  0
   -0.3333   -3.7958    0.0000 C   0  0  0  0  0  0  0  0  0  0  0  0
    0.3833   -5.0333    0.0000 C   0  0  0  0  0  0  0  0  0  0  0  0
    0.3792   -3.3833    0.0000 C   0  0  0  0  0  0  0  0  0  0  0  0
    1.0958   -4.6208    0.0000 C   0  0  0  0  0  0  0  0  0  0  0  0
  2  1  2  0
  3  2  1  0
  4  1  1  0
  5  4  1  0
  6  3  2  0
  7  1  1  0
  8  7  3  0
  9  4  2  0
 10  3  1  0
 11 14  2  0
 12  6  1  0
 13 15  2  0
 14 16  1  0
 15 10  1  0
 16 10  2  0
  6  5  1  0
 11 13  1  0
M  END
>  <ID>  (1242) 


>  <MOLENAME>  (1242) 
MILRINONE

>  <therap>  (1242) 
cardiotonic

>  <ref>  (1242) 
Drugs (1988), 36(2), 158-92; Basic Res. Cardiol. (1989), 84 Suppl 185-103; Clin. Pharm. (1986), 5(3), 201-5

>  <cas#>  (1242) 
78415-72-2

>  <source>  (1242) 
synthetic; WIN-47203-2

>  <status>  (1242) 
USP, INN, BAN

>  <tradename>  (1242) 
PRIMACOR

>  <SMILES>  (1242) 
Cc1c(-c2ccncc2)cc(C#N)c(=O)[nH]1

>  <standardized_failed>  (1242) 
False

$$$$

     RDKit          2D

 13 14  0  0  0  0  0  0  0  0999 V2000
    6.8042   -4.2750    0.0000 N   0  0  0  0  0  0  0  0  0  0  0  0
    4.9667   -3.0542    0.0000 C   0  0  0  0  0  0  0  0  0  0  0  0
    4.9667   -2.2292    0.0000 C   0  0  0  0  0  0  0  0  0  0  0  0
    5.7542   -3.3125    0.0000 C   0  0  0  0  0  0  0  0  0  0  0  0
    4.1792   -3.3125    0.0000 O   0  0  0  0  0  0  0  0  0  0  0  0
    5.7542   -1.9750    0.0000 O   0  0  0  0  0  0  0  0  0  0  0  0
    6.0042   -4.1000    0.0000 O   0  0  0  0  0  0  0  0  0  0  0  0
    4.1792   -1.9750    0.0000 C   0  0  0  0  0  0  0  0  0  0  0  0
    6.2292   -2.6500    0.0000 C   0  0  0  0  0  0  0  0  0  0  0  0
    7.3667   -3.6625    0.0000 O   0  0  0  0  0  0  0  0  0  0  0  0
    7.0667   -5.0625    0.0000 O   0  0  0  0  0  0  0  0  0  0  0  0
    3.7042   -2.6500    0.0000 C   0  0  0  0  0  0  0  0  0  0  0  0
    3.9292   -1.1875    0.0000 O   0  0  0  0  0  0  0  0  0  0  0  0
  2  4  1  0
  3  2  1  0
  4  7  1  1
  2  5  1  1
  6  9  1  0
  7  1  1  0
  3  8  1  0
  9  4  1  0
 10  1  1  0
 11  1  2  0
 12  5  1  0
  8 13  1  6
  3  6  1  1
  8 12  1  0
M  CHG  2   1   1  10  -1
M  END
>  <ID>  (1243) 


>  <MOLENAME>  (1243) 
ISOSORBIDE MONONITRATE

>  <therap>  (1243) 
antianginal

>  <ref>  (1243) 
Drugs (1999), 57(2), 261-277; Eur. J. Clin. Pharmacol. (1990), 38(Suppl. 1), S35-S51; J. Pharmacol. Exp. Ther. (1972), 180(3), 732-42

>  <cas#>  (1243) 
16051-77-7

>  <source>  (1243) 
semisynthetic; BM-22145, IS-5-MN, AHR-4698

>  <status>  (1243) 
USAN, INN, BAN, JAN

>  <tradename>  (1243) 
IMDUR

>  <SMILES>  (1243) 
O=[N+]([O-])O[C@@H]1CO[C@@H]2[C@@H](O)CO[C@H]12

>  <standardized_failed>  (1243) 
False

$$$$

     RDKit          2D

 25 26  0  0  0  0  0  0  0  0999 V2000
    6.3125   -6.7875    0.0000 C   0  0  0  0  0  0  0  0  0  0  0  0
    5.5250   -7.0500    0.0000 C   0  0  0  0  0  0  0  0  0  0  0  0
    6.8000   -7.4542    0.0000 O   0  0  0  0  0  0  0  0  0  0  0  0
    5.5292   -7.8750    0.0000 C   0  0  0  0  0  0  0  0  0  0  0  0
    2.6625   -8.7000    0.0000 N   0  0  0  0  0  0  0  0  0  0  0  0
    6.5625   -6.0042    0.0000 C   0  0  0  0  0  0  0  0  0  0  0  0
    3.3792   -8.2917    0.0000 C   0  0  0  0  0  0  0  0  0  0  0  0
    4.8125   -6.6375    0.0000 C   0  0  0  0  0  0  0  0  0  0  0  0
    6.3167   -8.1250    0.0000 C   0  0  0  0  0  0  0  0  0  0  0  0
    4.8125   -8.2917    0.0000 C   0  0  0  0  0  0  0  0  0  0  0  0
    4.1000   -7.8792    0.0000 C   0  0  0  0  0  0  0  0  0  0  0  0
    7.3667   -5.8292    0.0000 C   0  0  0  0  0  0  0  0  0  0  0  0
    6.0042   -5.4000    0.0000 C   0  0  0  0  0  0  0  0  0  0  0  0
    4.1000   -7.0542    0.0000 C   0  0  0  0  0  0  0  0  0  0  0  0
    7.0625   -4.4375    0.0000 C   0  0  0  0  0  0  0  0  0  0  0  0
    7.1375   -6.7875    0.0000 C   0  0  0  0  0  0  0  0  0  0  0  0
    8.7792   -8.2125    0.0000 N   0  0  0  0  0  0  0  0  0  0  0  0
    7.6167   -5.0500    0.0000 C   0  0  0  0  0  0  0  0  0  0  0  0
    6.2500   -4.6167    0.0000 C   0  0  0  0  0  0  0  0  0  0  0  0
    7.3125   -3.6500    0.0000 F   0  0  0  0  0  0  0  0  0  0  0  0
    9.5542   -6.3042    0.0000 Br  0  0  0  0  0  0  0  0  0  0  0  0
    7.5500   -7.5000    0.0000 C   0  0  0  0  0  0  0  0  0  0  0  0
    8.3667   -7.5000    0.0000 C   0  0  0  0  0  0  0  0  0  0  0  0
    9.6000   -8.2125    0.0000 C   0  0  0  0  0  0  0  0  0  0  0  0
    8.3667   -8.9250    0.0000 C   0  0  0  0  0  0  0  0  0  0  0  0
  2  1  1  0
  3  1  1  0
  4  2  2  0
  5  7  3  0
  6  1  1  0
  7 11  1  0
  8  2  1  0
  9  3  1  0
 10  4  1  0
 11 14  1  0
 12  6  2  0
 13  6  1  0
 14  8  2  0
 15 19  1  0
 16  1  1  0
 17 23  1  0
 18 12  1  0
 19 13  2  0
 20 15  1  0
 22 16  1  0
 23 22  1  0
 24 17  1  0
 25 17  1  0
  9  4  1  0
 15 18  2  0
 11 10  2  0
M  END
>  <ID>  (1244) 


>  <MOLENAME>  (1244) 
CITALOPRAM HYDROBROMIDE

>  <therap>  (1244) 
antidepressant, 5HT reuptake inhibitor

>  <ref>  (1244) 
Eur J Pharmacol 41:153 (1977); J Clin Psychiatry 61:896 (2000); 63:331 (2002)

>  <cas#>  (1244) 
59729-33-8

>  <source>  (1244) 
synthetic

>  <status>  (1244) 
USAN

>  <tradename>  (1244) 
CELEXA

>  <SMILES>  (1244) 
CN(C)CCCC1(c2ccc(F)cc2)OCc2c1ccc(C#N)c2

>  <standardized_failed>  (1244) 
False

$$$$

     RDKit          2D

 30 31  0  0  0  0  0  0  0  0999 V2000
    4.0792   -1.3250    0.0000 C   0  0  0  0  0  0  0  0  0  0  0  0
    3.3000   -1.0667    0.0000 C   0  0  0  0  0  0  0  0  0  0  0  0
    4.5667   -0.6542    0.0000 O   0  0  0  0  0  0  0  0  0  0  0  0
    3.3000   -0.2417    0.0000 C   0  0  0  0  0  0  0  0  0  0  0  0
    6.7250   -3.4875    0.0000 C   0  0  0  0  0  0  0  0  0  0  0  0
    7.3125   -3.1500    0.0000 C   0  0  0  0  0  0  0  0  0  0  0  0
    0.4417    0.5750    0.0000 N   0  0  0  0  0  0  0  0  0  0  0  0
    3.8667   -2.1167    0.0000 C   0  0  0  0  0  0  0  0  0  0  0  0
    1.1542    0.1625    0.0000 C   0  0  0  0  0  0  0  0  0  0  0  0
    2.5792   -1.4875    0.0000 C   0  0  0  0  0  0  0  0  0  0  0  0
    4.0792    0.0125    0.0000 C   0  0  0  0  0  0  0  0  0  0  0  0
    2.5792    0.1708    0.0000 C   0  0  0  0  0  0  0  0  0  0  0  0
    7.3125   -2.4667    0.0000 O   0  0  0  0  0  0  0  0  0  0  0  0
    6.1375   -3.1500    0.0000 O   0  0  0  0  0  0  0  0  0  0  0  0
    1.8667   -0.2500    0.0000 C   0  0  0  0  0  0  0  0  0  0  0  0
    3.0667   -2.3167    0.0000 C   0  0  0  0  0  0  0  0  0  0  0  0
    4.4375   -2.7000    0.0000 C   0  0  0  0  0  0  0  0  0  0  0  0
    1.8667   -1.0750    0.0000 C   0  0  0  0  0  0  0  0  0  0  0  0
    7.8917   -3.4917    0.0000 O   0  0  0  0  0  0  0  0  0  0  0  0
    6.7250   -4.1667    0.0000 O   0  0  0  0  0  0  0  0  0  0  0  0
    3.4167   -3.7042    0.0000 C   0  0  0  0  0  0  0  0  0  0  0  0
    4.8792   -1.5375    0.0000 C   0  0  0  0  0  0  0  0  0  0  0  0
    6.8375   -0.5750    0.0000 N   0  0  0  0  0  0  0  0  0  0  0  0
    2.8417   -3.1125    0.0000 C   0  0  0  0  0  0  0  0  0  0  0  0
    4.2167   -3.4917    0.0000 C   0  0  0  0  0  0  0  0  0  0  0  0
    3.2042   -4.5000    0.0000 F   0  0  0  0  0  0  0  0  0  0  0  0
    5.4542   -0.9500    0.0000 C   0  0  0  0  0  0  0  0  0  0  0  0
    6.2542   -1.1625    0.0000 C   0  0  0  0  0  0  0  0  0  0  0  0
    7.6292   -0.7875    0.0000 C   0  0  0  0  0  0  0  0  0  0  0  0
    6.6167    0.2208    0.0000 C   0  0  0  0  0  0  0  0  0  0  0  0
  2  1  1  0
  1  3  1  0
  4  2  2  0
  6  5  1  0
  7  9  3  0
  8  1  1  0
  9 15  1  0
 10  2  1  0
 11  3  1  0
 12  4  1  0
 13  6  2  0
 14  5  2  0
 15 12  2  0
 16  8  2  0
 17  8  1  0
 18 10  2  0
 19  6  1  0
 20  5  1  0
 21 25  1  0
  1 22  1  6
 23 28  1  0
 24 16  1  0
 25 17  2  0
 26 21  1  0
 27 22  1  0
 28 27  1  0
 29 23  1  0
 30 23  1  0
 11  4  1  0
 18 15  1  0
 24 21  2  0
M  END
>  <ID>  (1245) 


>  <MOLENAME>  (1245) 
ESCITALOPRAM OXALATE

>  <therap>  (1245) 
antidepressant, 5HT reuptake inhibitor

>  <ref>  (1245) 
CNS Drugs (2010), 24(9), 769-796; Expert Opin. Drug Metab. Toxicol. (2007), 3(5), 741-753; Drugs Future (2001), 26(2), 115-120

>  <cas#>  (1245) 
219861-08-2

>  <source>  (1245) 
synthetic; LU26-054-0

>  <status>  (1245) 
USAN

>  <tradename>  (1245) 
LEXAPRO

>  <SMILES>  (1245) 
CN(C)CCC[C@@]1(c2ccc(F)cc2)OCc2c1ccc(C#N)c2

>  <standardized_failed>  (1245) 
False

$$$$

     RDKit          2D

 22 23  0  0  0  0  0  0  0  0999 V2000
    0.4167    0.4750    0.0000 N   0  0  0  0  0  0  0  0  0  0  0  0
    3.2667    0.4833    0.0000 N   0  0  0  0  0  0  0  0  0  0  0  0
    2.5542    0.0708    0.0000 C   0  0  0  0  0  0  0  0  0  0  0  0
    1.1292    0.0708    0.0000 C   0  0  0  0  0  0  0  0  0  0  0  0
    1.8417    0.4833    0.0000 N   0  0  0  0  0  0  0  0  0  0  0  0
   -0.2958    0.0625    0.0000 C   0  0  0  0  0  0  0  0  0  0  0  0
    3.9792    0.0833    0.0000 C   0  0  0  0  0  0  0  0  0  0  0  0
    4.6917    0.4875    0.0000 C   0  0  0  0  0  0  0  0  0  0  0  0
   -1.0125    0.4750    0.0000 C   0  0  0  0  0  0  0  0  0  0  0  0
   -1.7250    0.0625    0.0000 C   0  0  0  0  0  0  0  0  0  0  0  0
    5.3917    0.0833    0.0000 C   0  0  0  0  0  0  0  0  0  0  0  0
    3.9750   -0.7375    0.0000 C   0  0  0  0  0  0  0  0  0  0  0  0
   -0.2958   -0.7667    0.0000 C   0  0  0  0  0  0  0  0  0  0  0  0
    5.4000   -0.7375    0.0000 C   0  0  0  0  0  0  0  0  0  0  0  0
   -1.7250   -0.7667    0.0000 C   0  0  0  0  0  0  0  0  0  0  0  0
   -1.0125   -1.1792    0.0000 C   0  0  0  0  0  0  0  0  0  0  0  0
    4.6875   -1.1500    0.0000 C   0  0  0  0  0  0  0  0  0  0  0  0
    1.8375    1.3083    0.0000 C   0  0  0  0  0  0  0  0  0  0  0  0
   -1.0208    1.3000    0.0000 C   0  0  0  0  0  0  0  0  0  0  0  0
    4.6917    1.3125    0.0000 C   0  0  0  0  0  0  0  0  0  0  0  0
   -2.4458   -1.1792    0.0000 C   0  0  0  0  0  0  0  0  0  0  0  0
    6.1167   -1.1417    0.0000 C   0  0  0  0  0  0  0  0  0  0  0  0
  2  3  2  0
  3  5  1  0
  4  1  2  0
  5  4  1  0
  6  1  1  0
  7  2  1  0
  8  7  2  0
  9  6  2  0
 10  9  1  0
 11  8  1  0
 12  7  1  0
 13  6  1  0
 14 17  1  0
 15 16  1  0
 16 13  2  0
 17 12  2  0
 18  5  1  0
 19  9  1  0
 20  8  1  0
 21 15  1  0
 22 14  1  0
 15 10  2  0
 11 14  2  0
M  END
>  <ID>  (1246) 


>  <MOLENAME>  (1246) 
AMITRAZ

>  <therap>  (1246) 
scabicide

>  <ref>  (1246) 
Toxicol Appl Pharmacol 73:411 (1984); Toxicol Lett 28:99 (1985)

>  <cas#>  (1246) 
33089-61-1

>  <source>  (1246) 
synthetic; U-36059

>  <status>  (1246) 
USP, INN, BAN

>  <tradename>  (1246) 
ALUDEX

>  <SMILES>  (1246) 
Cc1cc(C)c(/N=C/N(C)/C=N/c2c(C)cc(C)cc2)cc1

>  <standardized_failed>  (1246) 
False

$$$$

     RDKit          2D

 11 11  0  0  0  0  0  0  0  0999 V2000
    3.2042   -3.1417    0.0000 C   0  0  0  0  0  0  0  0  0  0  0  0
    2.4917   -2.7292    0.0000 C   0  0  0  0  0  0  0  0  0  0  0  0
    3.9167   -2.7292    0.0000 C   0  0  0  0  0  0  0  0  0  0  0  0
    3.2042   -1.4917    0.0000 N   0  0  0  0  0  0  0  0  0  0  0  0
    3.9167   -1.9042    0.0000 C   0  0  0  0  0  0  0  0  0  0  0  0
    2.4917   -1.9042    0.0000 C   0  0  0  0  0  0  0  0  0  0  0  0
    1.7750   -3.1417    0.0000 Cl  0  0  0  0  0  0  0  0  0  0  0  0
    4.6375   -3.1417    0.0000 Cl  0  0  0  0  0  0  0  0  0  0  0  0
    3.2042   -3.9667    0.0000 O   0  0  0  0  0  0  0  0  0  0  0  0
    4.6292   -1.4875    0.0000 C   0  0  0  0  0  0  0  0  0  0  0  0
    1.7792   -1.4917    0.0000 C   0  0  0  0  0  0  0  0  0  0  0  0
  2  1  2  0
  3  1  1  0
  4  5  1  0
  5  3  2  0
  6  2  1  0
  7  2  1  0
  8  3  1  0
  9  1  1  0
 10  5  1  0
 11  6  1  0
  4  6  2  0
M  END
>  <ID>  (1247) 


>  <MOLENAME>  (1247) 
CLOPIDOL

>  <therap>  (1247) 
coccidiostat, antiplatelet

>  <ref>  (1247) 
Clin Appl Thromb Hemost 8:169 (2002)

>  <cas#>  (1247) 
2971-90-6

>  <source>  (1247) 
synthetic

>  <status>  (1247) 
USAN, INN, BAN

>  <tradename>  (1247) 
nan

>  <SMILES>  (1247) 
Cc1c(Cl)c(O)c(Cl)c(C)n1

>  <standardized_failed>  (1247) 
False

$$$$

     RDKit          2D

 19 18  0  0  0  0  0  0  0  0999 V2000
    0.3292   -0.7292    0.0000 P   0  0  0  0  0  0  0  0  0  0  0  0
    1.7542   -0.7292    0.0000 C   0  0  0  0  0  0  0  0  0  0  0  0
    1.0417   -1.1417    0.0000 S   0  0  0  0  0  0  0  0  0  0  0  0
    1.7542    0.0875    0.0000 C   0  0  0  0  0  0  0  0  0  0  0  0
    2.4667   -1.1417    0.0000 C   0  0  0  0  0  0  0  0  0  0  0  0
    2.4667    0.5000    0.0000 C   0  0  0  0  0  0  0  0  0  0  0  0
   -0.3833   -0.3167    0.0000 S   0  0  0  0  0  0  0  0  0  0  0  0
    2.4667   -1.9667    0.0000 O   0  0  0  0  0  0  0  0  0  0  0  0
    3.1792    0.0958    0.0000 O   0  0  0  0  0  0  0  0  0  0  0  0
    0.3292    0.0958    0.0000 O   0  0  0  0  0  0  0  0  0  0  0  0
   -0.3833   -1.1417    0.0000 O   0  0  0  0  0  0  0  0  0  0  0  0
    3.1792   -0.7292    0.0000 O   0  0  0  0  0  0  0  0  0  0  0  0
    2.4667    1.3208    0.0000 O   0  0  0  0  0  0  0  0  0  0  0  0
    3.8917   -1.1375    0.0000 C   0  0  0  0  0  0  0  0  0  0  0  0
    3.1792    1.7333    0.0000 C   0  0  0  0  0  0  0  0  0  0  0  0
   -0.3833    0.5083    0.0000 C   0  0  0  0  0  0  0  0  0  0  0  0
   -0.3833   -1.9667    0.0000 C   0  0  0  0  0  0  0  0  0  0  0  0
    3.1792    2.5583    0.0000 C   0  0  0  0  0  0  0  0  0  0  0  0
    4.6042   -0.7250    0.0000 C   0  0  0  0  0  0  0  0  0  0  0  0
  2  3  1  0
  3  1  1  0
  4  2  1  0
  5  2  1  0
  6  4  1  0
  7  1  2  0
  8  5  2  0
  9  6  2  0
 10  1  1  0
 11  1  1  0
 12  5  1  0
 13  6  1  0
 14 12  1  0
 15 13  1  0
 16 10  1  0
 17 11  1  0
 18 15  1  0
 19 14  1  0
M  END
>  <ID>  (1248) 


>  <MOLENAME>  (1248) 
MALATHION

>  <therap>  (1248) 
pediculicide, insecticide, cholinesterase inhibitor

>  <ref>  (1248) 
JAMA 250:2469 (1983); J Environ Sci Health B28:413 (1993); Indian Vet J 74:565 (1997); 

>  <cas#>  (1248) 
121-75-5

>  <source>  (1248) 
synthetic

>  <status>  (1248) 
USP, BAN

>  <tradename>  (1248) 
OVIDE

>  <SMILES>  (1248) 
CCOC(=O)CC(SP(=S)(OC)OC)C(=O)OCC

>  <standardized_failed>  (1248) 
False

$$$$

     RDKit          2D

 26 27  0  0  0  0  0  0  0  0999 V2000
    5.7292   -4.2542    0.0000 N   0  0  0  0  0  0  0  0  0  0  0  0
    5.0667   -4.7375    0.0000 C   0  0  0  0  0  0  0  0  0  0  0  0
    5.3167   -5.5250    0.0000 C   0  0  0  0  0  0  0  0  0  0  0  0
    6.1417   -5.5250    0.0000 C   0  0  0  0  0  0  0  0  0  0  0  0
    6.4000   -4.7375    0.0000 N   0  0  0  0  0  0  0  0  0  0  0  0
    5.7292   -3.4292    0.0000 C   0  0  0  0  0  0  0  0  0  0  0  0
    4.8292   -6.1917    0.0000 S   0  0  0  0  0  0  0  0  0  0  0  0
    4.0125   -6.1042    0.0000 C   0  0  0  0  0  0  0  0  0  0  0  0
    6.4417   -3.0125    0.0000 C   0  0  0  0  0  0  0  0  0  0  0  0
    5.0167   -3.0167    0.0000 C   0  0  0  0  0  0  0  0  0  0  0  0
    5.7250   -0.9542    0.0000 C   0  0  0  0  0  0  0  0  0  0  0  0
    5.7292   -1.7792    0.0000 C   0  0  0  0  0  0  0  0  0  0  0  0
    6.6292   -6.1917    0.0000 C   0  0  0  0  0  0  0  0  0  0  0  0
    6.4417   -2.1917    0.0000 C   0  0  0  0  0  0  0  0  0  0  0  0
    5.0125   -2.1917    0.0000 C   0  0  0  0  0  0  0  0  0  0  0  0
    7.2125   -6.7750    0.0000 N   0  0  0  0  0  0  0  0  0  0  0  0
    4.2792   -4.4792    0.0000 N   0  0  0  0  0  0  0  0  0  0  0  0
    5.1667   -6.9417    0.0000 O   0  0  0  0  0  0  0  0  0  0  0  0
    3.5250   -6.7667    0.0000 F   0  0  0  0  0  0  0  0  0  0  0  0
    3.1875   -6.1042    0.0000 F   0  0  0  0  0  0  0  0  0  0  0  0
    3.6792   -5.3500    0.0000 F   0  0  0  0  0  0  0  0  0  0  0  0
    5.0125   -0.5417    0.0000 F   0  0  0  0  0  0  0  0  0  0  0  0
    5.7167   -0.1292    0.0000 F   0  0  0  0  0  0  0  0  0  0  0  0
    6.4417   -0.5375    0.0000 F   0  0  0  0  0  0  0  0  0  0  0  0
    4.3042   -3.4292    0.0000 Cl  0  0  0  0  0  0  0  0  0  0  0  0
    7.1542   -3.4250    0.0000 Cl  0  0  0  0  0  0  0  0  0  0  0  0
  2  1  1  0
  3  2  2  0
  4  5  2  0
  5  1  1  0
  6  1  1  0
  7  3  1  0
  8  7  1  0
  9  6  2  0
 10  6  1  0
 11 12  1  0
 12 15  1  0
 13  4  1  0
 14  9  1  0
 15 10  2  0
 16 13  3  0
 17  2  1  0
 18  7  2  0
 19  8  1  0
 20  8  1  0
 21  8  1  0
 22 11  1  0
 23 11  1  0
 24 11  1  0
 25 10  1  0
 26  9  1  0
  4  3  1  0
 12 14  2  0
M  END
>  <ID>  (1249) 


>  <MOLENAME>  (1249) 
FIPRONIL

>  <therap>  (1249) 
GABA Cl channel agonist, antiparasitic

>  <ref>  (1249) 
Chem. Res. Toxicol. (1998), 11(12), 1529-35; Proc. Natl. Acad. Sci. U. S. A. (1996), 93(23), 12764-7; Br. J. Pharmacol. (1995), 115(6), 909-12

>  <cas#>  (1249) 
120068-37-3

>  <source>  (1249) 
synthetic; RM-1601, MB-46030

>  <status>  (1249) 
BAN

>  <tradename>  (1249) 
nan

>  <SMILES>  (1249) 
N#Cc1nn(-c2c(Cl)cc(C(F)(F)F)cc2Cl)c(N)c1[S+]([O-])C(F)(F)F

>  <standardized_failed>  (1249) 
False

$$$$

     RDKit          2D

 26 27  0  0  0  0  0  0  0  0999 V2000
    3.8917   -1.2167    0.0000 N   0  0  0  0  0  0  0  0  0  0  0  0
    7.6375    0.8333    0.0000 N   0  0  0  0  0  0  0  0  0  0  0  0
    6.8167   -2.0792    0.0000 C   0  0  0  0  0  0  0  0  0  0  0  0
    3.4875   -2.6167    0.0000 C   0  0  0  0  0  0  0  0  0  0  0  0
    3.9292   -0.3792    0.0000 C   0  0  0  0  0  0  0  0  0  0  0  0
    7.5250   -2.4917    0.0000 C   0  0  0  0  0  0  0  0  0  0  0  0
    5.6625   -1.4917    0.0000 C   0  0  0  0  0  0  0  0  0  0  0  0
    5.8875   -2.4417    0.0000 O   0  0  0  0  0  0  0  0  0  0  0  0
    5.0042   -0.7167    0.0000 C   0  0  0  0  0  0  0  0  0  0  0  0
    4.5667   -1.6792    0.0000 C   0  0  0  0  0  0  0  0  0  0  0  0
    6.9125    0.4250    0.0000 O   0  0  0  0  0  0  0  0  0  0  0  0
    8.3500    0.4208    0.0000 O   0  0  0  0  0  0  0  0  0  0  0  0
    7.6375    1.6583    0.0000 O   0  0  0  0  0  0  0  0  0  0  0  0
    6.8167   -1.2542    0.0000 O   0  0  0  0  0  0  0  0  0  0  0  0
    2.2667   -1.4167    0.0000 C   0  0  0  0  0  0  0  0  0  0  0  0
    3.0042   -0.5167    0.0000 C   0  0  0  0  0  0  0  0  0  0  0  0
    8.2500   -2.0792    0.0000 C   0  0  0  0  0  0  0  0  0  0  0  0
    2.7667   -1.2500    0.0000 C   0  0  0  0  0  0  0  0  0  0  0  0
    4.8917   -1.1875    0.0000 C   0  0  0  0  0  0  0  0  0  0  0  0
    7.5292   -3.3167    0.0000 C   0  0  0  0  0  0  0  0  0  0  0  0
    6.8167   -3.7292    0.0000 O   0  0  0  0  0  0  0  0  0  0  0  0
    8.2500   -1.2542    0.0000 C   0  0  0  0  0  0  0  0  0  0  0  0
    8.9625   -2.4917    0.0000 C   0  0  0  0  0  0  0  0  0  0  0  0
    9.6750   -2.0792    0.0000 C   0  0  0  0  0  0  0  0  0  0  0  0
    8.9542   -0.8417    0.0000 C   0  0  0  0  0  0  0  0  0  0  0  0
    9.6667   -1.2542    0.0000 C   0  0  0  0  0  0  0  0  0  0  0  0
  3  8  1  0
  4  1  1  0
  5  1  1  0
  6  3  1  0
  7 10  1  0
  8  7  1  0
  9  5  1  0
 10  4  1  0
 11  2  1  0
 12  2  1  0
 13  2  2  0
 14  3  2  0
 15  4  1  0
 16  5  1  0
 17  6  1  0
 18  1  1  0
 19  1  1  0
 20  6  1  0
 21 20  1  0
 22 17  2  0
 23 17  1  0
 24 23  2  0
 25 22  1  0
 26 24  1  0
 16 15  1  0
  7  9  1  0
 25 26  2  0
M  CHG  4   1   1   2   1  11  -1  12  -1
M  END
>  <ID>  (1250) 


>  <MOLENAME>  (1250) 
METHYLATROPINE NITRATE

>  <therap>  (1250) 
anticholinergic

>  <ref>  (1250) 
Eur. J. Clin. Pharmacol. (1975), 8(3-4), 233-40; J. Pharmacol. Exp. Ther. (1953), 109, 372-6; J. Pharmacol. (1940), 70, 165-70

>  <cas#>  (1250) 
52-88-0

>  <source>  (1250) 
semisynthetic

>  <status>  (1250) 
USAN, INN, BAN, JAN

>  <tradename>  (1250) 
EKOMINE

>  <SMILES>  (1250) 
C[N+]1(C)C2CCC1CC(OC(=O)C(CO)c1ccccc1)C2

>  <standardized_failed>  (1250) 
False

$$$$

     RDKit          2D

 27 24  0  0  0  0  0  0  0  0999 V2000
    8.8542   -0.4250    0.0000 C   0  0  0  0  0  0  0  0  0  0  0  0
    8.8917   -4.1875    0.0000 C   0  0  0  0  0  0  0  0  0  0  0  0
    8.8542   -1.2500    0.0000 O   0  0  0  0  0  0  0  0  0  0  0  0
    8.8917   -3.3625    0.0000 O   0  0  0  0  0  0  0  0  0  0  0  0
    9.5667   -0.0042    0.0000 O   0  0  0  0  0  0  0  0  0  0  0  0
    9.6042   -4.6000    0.0000 O   0  0  0  0  0  0  0  0  0  0  0  0
    2.4417   -0.0292    0.0000 C   0  0  0  0  0  0  0  0  0  0  0  0
    2.4792   -4.5792    0.0000 C   0  0  0  0  0  0  0  0  0  0  0  0
    1.7292   -0.4417    0.0000 C   0  0  0  0  0  0  0  0  0  0  0  0
    1.7667   -4.1667    0.0000 C   0  0  0  0  0  0  0  0  0  0  0  0
    8.8000   -2.3542    0.0000 Zn  0  0  0  0  0 15  0  0  0  0  0  0
    8.1792   -4.5917    0.0000 C   0  0  0  0  0  0  0  0  0  0  0  0
    8.1417   -0.0167    0.0000 C   0  0  0  0  0  0  0  0  0  0  0  0
    3.1917   -4.1667    0.0000 C   0  0  0  0  0  0  0  0  0  0  0  0
    3.1542   -0.4417    0.0000 C   0  0  0  0  0  0  0  0  0  0  0  0
    7.4667   -4.1792    0.0000 C   0  0  0  0  0  0  0  0  0  0  0  0
    7.4292   -0.4292    0.0000 C   0  0  0  0  0  0  0  0  0  0  0  0
    3.9042   -4.5792    0.0000 C   0  0  0  0  0  0  0  0  0  0  0  0
    3.8667   -0.0292    0.0000 C   0  0  0  0  0  0  0  0  0  0  0  0
    5.2917   -0.0250    0.0000 C   0  0  0  0  0  0  0  0  0  0  0  0
    6.0042   -0.4292    0.0000 C   0  0  0  0  0  0  0  0  0  0  0  0
    6.7167   -0.0167    0.0000 C   0  0  0  0  0  0  0  0  0  0  0  0
    6.0417   -4.1792    0.0000 C   0  0  0  0  0  0  0  0  0  0  0  0
    6.7542   -4.5917    0.0000 C   0  0  0  0  0  0  0  0  0  0  0  0
    4.6167   -4.1750    0.0000 C   0  0  0  0  0  0  0  0  0  0  0  0
    5.3292   -4.5875    0.0000 C   0  0  0  0  0  0  0  0  0  0  0  0
    4.5792   -0.4375    0.0000 C   0  0  0  0  0  0  0  0  0  0  0  0
  3  1  1  0
  4  2  1  0
  5  1  2  0
  6  2  2  0
  7 15  1  0
  8 14  1  0
  9  7  2  0
 10  8  2  0
 12  2  1  0
 13  1  1  0
 14 18  1  0
 15 19  1  0
 16 12  1  0
 17 13  1  0
 18 25  1  0
 19 27  1  0
 20 21  1  0
 21 22  1  0
 22 17  1  0
 23 24  1  0
 24 16  1  0
 25 26  1  0
 26 23  1  0
 27 20  1  0
M  CHG  3   3  -1   4  -1  11   2
M  END
>  <ID>  (1251) 


>  <MOLENAME>  (1251) 
ZINC UNDECYLENATE

>  <therap>  (1251) 
antifungal

>  <ref>  (1251) 
Arch Dermatol 119:351 (1983)

>  <cas#>  (1251) 
557-08-4

>  <source>  (1251) 
synthetic

>  <status>  (1251) 
USP, JAN

>  <tradename>  (1251) 
MYCODECYL

>  <SMILES>  (1251) 
C=CCCCCCCCCC(=O)[O-].C=CCCCCCCCCC(=O)[O-].[Zn+2]

>  <standardized_failed>  (1251) 
False

$$$$

     RDKit          2D

 11 11  0  0  0  0  0  0  0  0999 V2000
    6.4417   -7.3542    0.0000 As  0  0  0  0  0  5  0  0  0  0  0  0
    5.7292   -6.9417    0.0000 C   0  0  0  0  0  0  0  0  0  0  0  0
    6.8542   -6.6417    0.0000 O   0  0  0  0  0  0  0  0  0  0  0  0
    6.0292   -8.0667    0.0000 O   0  0  0  0  0  0  0  0  0  0  0  0
    7.1542   -7.7667    0.0000 O   0  0  0  0  0  0  0  0  0  0  0  0
    5.0125   -7.3542    0.0000 C   0  0  0  0  0  0  0  0  0  0  0  0
    5.7292   -6.1167    0.0000 C   0  0  0  0  0  0  0  0  0  0  0  0
    4.3000   -6.1167    0.0000 C   0  0  0  0  0  0  0  0  0  0  0  0
    3.5875   -5.7042    0.0000 N   0  0  0  0  0  0  0  0  0  0  0  0
    5.0125   -5.7042    0.0000 C   0  0  0  0  0  0  0  0  0  0  0  0
    4.3000   -6.9417    0.0000 C   0  0  0  0  0  0  0  0  0  0  0  0
  2  1  1  0
  3  1  2  0
  4  1  1  0
  5  1  1  0
  6  2  2  0
  7  2  1  0
  8 10  1  0
  9  8  1  0
 10  7  2  0
 11  6  1  0
 11  8  2  0
M  END
>  <ID>  (1252) 


>  <MOLENAME>  (1252) 
ARSANILIC ACID

>  <therap>  (1252) 
antibacterial

>  <ref>  (1252) 
Toxicol Appl Pharmacol 18:185 (1971); Clin Toxicol 6:439 (1973)

>  <cas#>  (1252) 
98-50-0

>  <source>  (1252) 
synthetic; AS-101

>  <status>  (1252) 
USP, INN, BAN

>  <tradename>  (1252) 
nan

>  <SMILES>  (1252) 
Nc1ccc([As](=O)(O)O)cc1

>  <standardized_failed>  (1252) 
False

$$$$

     RDKit          2D

 15 16  0  0  0  0  0  0  0  0999 V2000
    5.8167   -5.1292    0.0000 C   0  0  0  0  0  0  0  0  0  0  0  0
    5.1917   -5.6875    0.0000 N   0  0  0  0  0  0  0  0  0  0  0  0
    6.5292   -5.5417    0.0000 N   0  0  0  0  0  0  0  0  0  0  0  0
    5.5292   -6.4292    0.0000 C   0  0  0  0  0  0  0  0  0  0  0  0
    6.3542   -6.3500    0.0000 C   0  0  0  0  0  0  0  0  0  0  0  0
    5.9917   -4.3167    0.0000 S   0  0  0  0  0  0  0  0  0  0  0  0
    5.1792   -7.1792    0.0000 C   0  0  0  0  0  0  0  0  0  0  0  0
    7.1417   -4.9875    0.0000 C   0  0  0  0  0  0  0  0  0  0  0  0
    6.8042   -4.2375    0.0000 C   0  0  0  0  0  0  0  0  0  0  0  0
    8.1042   -5.8375    0.0000 Cl  0  0  0  0  0  0  0  0  0  0  0  0
    4.3667   -7.2625    0.0000 C   0  0  0  0  0  0  0  0  0  0  0  0
    5.6667   -7.8542    0.0000 C   0  0  0  0  0  0  0  0  0  0  0  0
    4.0167   -8.0125    0.0000 C   0  0  0  0  0  0  0  0  0  0  0  0
    5.3167   -8.6042    0.0000 C   0  0  0  0  0  0  0  0  0  0  0  0
    4.4917   -8.6792    0.0000 C   0  0  0  0  0  0  0  0  0  0  0  0
  2  1  2  0
  3  1  1  0
  4  2  1  0
  5  3  1  0
  6  1  1  0
  4  7  1  0
  8  3  1  0
  9  6  1  0
 11  7  2  0
 12  7  1  0
 13 11  1  0
 14 12  2  0
 15 13  2  0
  9  8  1  0
  5  4  1  0
 14 15  1  0
M  END
>  <ID>  (1253) 


>  <MOLENAME>  (1253) 
TETRAMIZOLE HYDROCHLORIDE

>  <therap>  (1253) 
anthelmintic

>  <ref>  (1253) 
Nature 209:1084 (1966); Brit Med J 4:93 (1968)

>  <cas#>  (1253) 
5086-74-8

>  <source>  (1253) 
synthetic; R-8299, McN-JR-8299-11

>  <status>  (1253) 
USAN, INN, BAN

>  <tradename>  (1253) 
ANTHELVET

>  <SMILES>  (1253) 
c1ccc(C2CN3CCSC3=N2)cc1

>  <standardized_failed>  (1253) 
False

$$$$

     RDKit          2D

111104  0  0  0  0  0  0  0  0999 V2000
    7.1292   -1.7500    0.0000 C   0  0  0  0  0  0  0  0  0  0  0  0
    5.0500   -3.7292    0.0000 C   0  0  0  0  0  0  0  0  0  0  0  0
    5.0500   -5.3250    0.0000 S   0  0  0  0  0  0  0  0  0  0  0  0
    5.0375   -0.7625    0.0000 S   0  0  0  0  0  0  0  0  0  0  0  0
    7.0500    1.1583    0.0000 S   0  0  0  0  0  0  0  0  0  0  0  0
    2.9500   -4.1250    0.0000 S   0  0  0  0  0  0  0  0  0  0  0  0
    7.8375   -4.4042    0.0000 S   0  0  0  0  0  0  0  0  0  0  0  0
    6.7125   -1.0875    0.0000 C   0  0  0  0  0  0  0  0  0  0  0  0
    5.7542   -3.3292    0.0000 C   0  0  0  0  0  0  0  0  0  0  0  0
    4.3500   -3.3292    0.0000 C   0  0  0  0  0  0  0  0  0  0  0  0
    8.6917   -2.6250    0.0000 S   0  0  0  0  0  0  0  0  0  0  0  0
    9.6750    0.4083    0.0000 S   0  0  0  0  0  0  0  0  0  0  0  0
    2.1333   -2.1125    0.0000 S   0  0  0  0  0  0  0  0  0  0  0  0
    7.2417   -0.4750    0.0000 C   0  0  0  0  0  0  0  0  0  0  0  0
    5.7542   -2.5375    0.0000 C   0  0  0  0  0  0  0  0  0  0  0  0
    7.9375   -1.5542    0.0000 O   0  0  0  0  0  0  0  0  0  0  0  0
    7.0500    1.9542    0.0000 O   0  0  0  0  0  0  0  0  0  0  0  0
    4.2250   -0.7625    0.0000 O   0  0  0  0  0  0  0  0  0  0  0  0
    5.0500   -6.1167    0.0000 O   0  0  0  0  0  0  0  0  0  0  0  0
    2.1500   -4.1250    0.0000 O   0  0  0  0  0  0  0  0  0  0  0  0
    8.6500   -4.4042    0.0000 O   0  0  0  0  0  0  0  0  0  0  0  0
    6.4542   -2.1375    0.0000 O   0  0  0  0  0  0  0  0  0  0  0  0
    9.5000   -2.6250    0.0000 O   0  0  0  0  0  0  0  0  0  0  0  0
    1.3292   -2.1125    0.0000 O   0  0  0  0  0  0  0  0  0  0  0  0
   10.4750    0.4083    0.0000 O   0  0  0  0  0  0  0  0  0  0  0  0
    7.9875   -0.7625    0.0000 C   0  0  0  0  0  0  0  0  0  0  0  0
    4.3500   -2.5375    0.0000 C   0  0  0  0  0  0  0  0  0  0  0  0
    5.0500   -2.1375    0.0000 O   0  0  0  0  0  0  0  0  0  0  0  0
    5.0542   -4.5292    0.0000 O   0  0  0  0  0  0  0  0  0  0  0  0
    5.9042   -1.0292    0.0000 O   0  0  0  0  0  0  0  0  0  0  0  0
    6.4542   -3.7292    0.0000 O   0  0  0  0  0  0  0  0  0  0  0  0
    3.6542   -3.7292    0.0000 O   0  0  0  0  0  0  0  0  0  0  0  0
    7.0375    0.3000    0.0000 O   0  0  0  0  0  0  0  0  0  0  0  0
    7.1042   -2.6250    0.0000 C   0  0  0  0  0  0  0  0  0  0  0  0
    5.0500   -6.9125    0.0000 Al  0  0  0  0  0  3  0  0  0  0  0  0
    3.4250   -0.7625    0.0000 Al  0  0  0  0  0  3  0  0  0  0  0  0
    1.3375   -4.1250    0.0000 Al  0  0  0  0  0  3  0  0  0  0  0  0
    9.4500   -4.4042    0.0000 Al  0  0  0  0  0  3  0  0  0  0  0  0
    7.0500    2.7500    0.0000 Al  0  0  0  0  0  3  0  0  0  0  0  0
    0.5250   -2.1125    0.0000 Al  0  0  0  0  0  3  0  0  0  0  0  0
   10.3042   -2.6250    0.0000 Al  0  0  0  0  0  3  0  0  0  0  0  0
   11.2875    0.4083    0.0000 Al  0  0  0  0  0  3  0  0  0  0  0  0
    4.2500    2.9083    0.0000 Al  0  0  0  0  0  3  0  0  0  0  0  0
    2.1958    0.6708    0.0000 Al  0  0  0  0  0  3  0  0  0  0  0  0
   -1.4583   -1.3625    0.0000 Al  0  0  0  0  0  3  0  0  0  0  0  0
   -0.6583   -4.9500    0.0000 Al  0  0  0  0  0  3  0  0  0  0  0  0
   13.7000    2.2042    0.0000 Al  0  0  0  0  0  3  0  0  0  0  0  0
   13.4667   -2.8125    0.0000 Al  0  0  0  0  0  3  0  0  0  0  0  0
   11.9917   -5.0417    0.0000 Al  0  0  0  0  0  3  0  0  0  0  0  0
    8.5625   -6.9500    0.0000 Al  0  0  0  0  0  3  0  0  0  0  0  0
    7.8875   -2.6250    0.0000 O   0  0  0  0  0  0  0  0  0  0  0  0
    8.6750   -0.3375    0.0000 C   0  0  0  0  0  0  0  0  0  0  0  0
    3.6542   -2.1375    0.0000 C   0  0  0  0  0  0  0  0  0  0  0  0
    8.6500    0.4125    0.0000 O   0  0  0  0  0  0  0  0  0  0  0  0
    2.9417   -2.1125    0.0000 O   0  0  0  0  0  0  0  0  0  0  0  0
    2.9500   -4.9167    0.0000 O   0  0  0  0  0  0  0  0  0  0  0  0
    7.8500    1.1625    0.0000 O   0  0  0  0  0  0  0  0  0  0  0  0
    6.2375    1.1625    0.0000 O   0  0  0  0  0  0  0  0  0  0  0  0
    5.8542   -5.3250    0.0000 O   0  0  0  0  0  0  0  0  0  0  0  0
    5.0292    0.0250    0.0000 O   0  0  0  0  0  0  0  0  0  0  0  0
    5.0292   -1.5625    0.0000 O   0  0  0  0  0  0  0  0  0  0  0  0
    4.2417   -5.3250    0.0000 O   0  0  0  0  0  0  0  0  0  0  0  0
    2.9500   -3.3292    0.0000 O   0  0  0  0  0  0  0  0  0  0  0  0
    7.8417   -3.6125    0.0000 O   0  0  0  0  0  0  0  0  0  0  0  0
    7.8417   -5.2000    0.0000 O   0  0  0  0  0  0  0  0  0  0  0  0
    9.6750   -0.3875    0.0000 O   0  0  0  0  0  0  0  0  0  0  0  0
    8.7000   -3.4250    0.0000 O   0  0  0  0  0  0  0  0  0  0  0  0
    8.7000   -1.8375    0.0000 O   0  0  0  0  0  0  0  0  0  0  0  0
    9.6750    1.2000    0.0000 O   0  0  0  0  0  0  0  0  0  0  0  0
    2.1292   -1.3125    0.0000 O   0  0  0  0  0  0  0  0  0  0  0  0
    2.1292   -2.9042    0.0000 O   0  0  0  0  0  0  0  0  0  0  0  0
    2.6125   -0.7625    0.0000 O   0  0  0  0  0  0  0  0  0  0  0  0
   12.0875    0.4083    0.0000 O   0  0  0  0  0  0  0  0  0  0  0  0
    5.0500   -7.7042    0.0000 O   0  0  0  0  0  0  0  0  0  0  0  0
   10.2625   -4.4042    0.0000 O   0  0  0  0  0  0  0  0  0  0  0  0
    6.2375    2.7500    0.0000 O   0  0  0  0  0  0  0  0  0  0  0  0
    0.5167   -1.3125    0.0000 O   0  0  0  0  0  0  0  0  0  0  0  0
    3.4167    0.0250    0.0000 O   0  0  0  0  0  0  0  0  0  0  0  0
    9.4542   -3.6125    0.0000 O   0  0  0  0  0  0  0  0  0  0  0  0
    5.8542   -6.9167    0.0000 O   0  0  0  0  0  0  0  0  0  0  0  0
    0.5375   -4.1250    0.0000 O   0  0  0  0  0  0  0  0  0  0  0  0
    7.0500    3.5417    0.0000 O   0  0  0  0  0  0  0  0  0  0  0  0
   11.2875    1.2000    0.0000 O   0  0  0  0  0  0  0  0  0  0  0  0
   10.3125   -1.8375    0.0000 O   0  0  0  0  0  0  0  0  0  0  0  0
   -0.2833   -2.1125    0.0000 O   0  0  0  0  0  0  0  0  0  0  0  0
    1.3375   -3.3292    0.0000 O   0  0  0  0  0  0  0  0  0  0  0  0
   11.1125   -2.6250    0.0000 O   0  0  0  0  0  0  0  0  0  0  0  0
    4.9250    2.9083    0.0000 O   0  0  0  0  0  0  0  0  0  0  0  0
   -2.1250   -1.3625    0.0000 O   0  0  0  0  0  0  0  0  0  0  0  0
   -0.7875   -1.3625    0.0000 O   0  0  0  0  0  0  0  0  0  0  0  0
   -1.4625   -0.7000    0.0000 O   0  0  0  0  0  0  0  0  0  0  0  0
    4.2500    3.5708    0.0000 O   0  0  0  0  0  0  0  0  0  0  0  0
   -1.3250   -4.9500    0.0000 O   0  0  0  0  0  0  0  0  0  0  0  0
    0.0125   -4.9500    0.0000 O   0  0  0  0  0  0  0  0  0  0  0  0
   -0.6625   -4.2875    0.0000 O   0  0  0  0  0  0  0  0  0  0  0  0
    3.5792    2.9083    0.0000 O   0  0  0  0  0  0  0  0  0  0  0  0
   13.0250    2.2042    0.0000 O   0  0  0  0  0  0  0  0  0  0  0  0
   14.3667    2.2042    0.0000 O   0  0  0  0  0  0  0  0  0  0  0  0
   13.6917    2.8625    0.0000 O   0  0  0  0  0  0  0  0  0  0  0  0
    1.5292    0.6708    0.0000 O   0  0  0  0  0  0  0  0  0  0  0  0
   12.8000   -2.8125    0.0000 O   0  0  0  0  0  0  0  0  0  0  0  0
   14.1375   -2.8125    0.0000 O   0  0  0  0  0  0  0  0  0  0  0  0
   13.4625   -2.1500    0.0000 O   0  0  0  0  0  0  0  0  0  0  0  0
    2.8750    0.6708    0.0000 O   0  0  0  0  0  0  0  0  0  0  0  0
   11.3250   -5.0417    0.0000 O   0  0  0  0  0  0  0  0  0  0  0  0
   12.6625   -5.0417    0.0000 O   0  0  0  0  0  0  0  0  0  0  0  0
   11.9875   -4.3792    0.0000 O   0  0  0  0  0  0  0  0  0  0  0  0
    2.1958    1.3333    0.0000 O   0  0  0  0  0  0  0  0  0  0  0  0
    7.8875   -6.9500    0.0000 O   0  0  0  0  0  0  0  0  0  0  0  0
    9.2292   -6.9500    0.0000 O   0  0  0  0  0  0  0  0  0  0  0  0
    8.5542   -6.2875    0.0000 O   0  0  0  0  0  0  0  0  0  0  0  0
  2  9  1  0
  3 29  1  0
  4 30  1  0
  5 33  1  0
  6 32  1  0
  7 31  1  0
  8  1  1  0
  9 15  1  0
 10 27  1  0
 11 51  1  0
 12 54  1  0
 13 55  1  0
 14  8  1  0
 15 22  1  6
 16  1  1  0
 17  5  1  0
 18  4  1  0
 19  3  1  0
 20  6  1  0
 21  7  1  0
  1 22  1  0
 23 11  1  0
 24 13  1  0
 25 12  1  0
 26 16  1  0
 27 28  1  0
 28 15  1  0
  2 29  1  1
  8 30  1  1
  9 31  1  6
 10 32  1  6
 14 33  1  6
  1 34  1  6
 35 19  1  0
 36 18  1  0
 37 20  1  0
 38 21  1  0
 39 17  1  0
 40 24  1  0
 41 23  1  0
 42 25  1  0
 51 34  1  0
 26 52  1  1
 27 53  1  1
 54 52  1  0
 55 53  1  0
 56  6  2  0
 57  5  2  0
 58  5  2  0
 59  3  2  0
 60  4  2  0
 61  4  2  0
 62  3  2  0
 63  6  2  0
 64  7  2  0
 65  7  2  0
 66 12  2  0
 67 11  2  0
 68 11  2  0
 69 12  2  0
 70 13  2  0
 71 13  2  0
 72 36  1  0
 73 42  1  0
 74 35  1  0
 75 38  1  0
 76 39  1  0
 77 40  1  0
 78 36  1  0
 79 38  1  0
 80 35  1  0
 81 37  1  0
 82 39  1  0
 83 42  1  0
 84 41  1  0
 85 40  1  0
 86 37  1  0
 87 41  1  0
 88 43  1  0
 89 45  1  0
 90 45  1  0
 91 45  1  0
 92 43  1  0
 93 46  1  0
 94 46  1  0
 95 46  1  0
 96 43  1  0
 97 47  1  0
 98 47  1  0
 99 47  1  0
100 44  1  0
101 48  1  0
102 48  1  0
103 48  1  0
104 44  1  0
105 49  1  0
106 49  1  0
107 49  1  0
108 44  1  0
109 50  1  0
110 50  1  0
111 50  1  0
 14 26  1  0
  2 10  1  0
M  END
>  <ID>  (1254) 


>  <MOLENAME>  (1254) 
SUCRALFATE

>  <therap>  (1254) 
antiulcer

>  <ref>  (1254) 
Arzneim Forsch 29:793, 1668 (1979); 30:73 (1980); Drugs 27:194 (1984)

>  <cas#>  (1254) 
54182-58-0 (free acid)

>  <source>  (1254) 
semisynthetic

>  <status>  (1254) 
USP, INN, BAN, JAN

>  <tradename>  (1254) 
CARAFATE

>  <SMILES>  (1254) 
O=S(=O)(OC[C@H]1O[C@H](O[C@]2(COS(=O)(=O)O[Al](O)O)O[C@H](COS(=O)(=O)O[Al](O)O)[C@@H](OS(=O)(=O)O[Al](O)O)[C@@H]2OS(=O)(=O)O[Al](O)O)[C@H](OS(=O)(=O)O[Al](O)O)[C@@H](OS(=O)(=O)O[Al](O)O)[C@@H]1OS(=O)(=O)O[Al](O)O)O[Al](O)O.O[Al](O)O.O[Al](O)O.O[Al](O)O.O[Al](O)O.O[Al](O)O.O[Al](O)O.O[Al](O)O.O[Al](O)O

>  <standardized_failed>  (1254) 
False

$$$$

     RDKit          2D

 12 11  0  0  0  0  0  0  0  0999 V2000
    3.1125   -1.8042    0.0000 P   0  0  0  0  0  0  0  0  0  0  0  0
    3.6917   -2.3917    0.0000 C   0  0  0  0  0  0  0  0  0  0  0  0
    3.4792   -3.1875    0.0000 C   0  0  0  0  0  0  0  0  0  0  0  0
    2.4917   -1.2167    0.0000 O   0  0  0  0  0  0  0  0  0  0  0  0
    2.6542   -3.1792    0.0000 Cl  0  0  0  0  0  0  0  0  0  0  0  0
    4.0625   -3.7667    0.0000 Cl  0  0  0  0  0  0  0  0  0  0  0  0
    3.0625   -3.9000    0.0000 Cl  0  0  0  0  0  0  0  0  0  0  0  0
    2.5250   -2.3917    0.0000 O   0  0  0  0  0  0  0  0  0  0  0  0
    3.8250   -1.3917    0.0000 O   0  0  0  0  0  0  0  0  0  0  0  0
    4.4917   -2.1750    0.0000 O   0  0  0  0  0  0  0  0  0  0  0  0
    3.8250   -0.5667    0.0000 C   0  0  0  0  0  0  0  0  0  0  0  0
    1.7250   -2.1750    0.0000 C   0  0  0  0  0  0  0  0  0  0  0  0
  2  1  1  0
  3  2  1  0
  4  1  2  0
  5  3  1  0
  6  3  1  0
  7  3  1  0
  8  1  1  0
  9  1  1  0
 10  2  1  0
 11  9  1  0
 12  8  1  0
M  END
>  <ID>  (1255) 


>  <MOLENAME>  (1255) 
TRICHLORFON

>  <therap>  (1255) 
anthelmintic

>  <ref>  (1255) 
Biochem Pharmacol 24:717 (1975); Arch Toxicol 41:31 (1978)

>  <cas#>  (1255) 
52-68-6

>  <source>  (1255) 
synthetic; Bayer-L-1359, DETF

>  <status>  (1255) 
USAN

>  <tradename>  (1255) 
METRIPHONATE

>  <SMILES>  (1255) 
COP(=O)(OC)C(O)C(Cl)(Cl)Cl

>  <standardized_failed>  (1255) 
False

$$$$

     RDKit          2D

 10 12  0  0  0  0  0  0  0  0999 V2000
    2.5167    0.4083    0.0000 As  0  0  0  0  0  3  0  0  0  0  0  0
    5.7792   -2.2250    0.0000 As  0  0  0  0  0  3  0  0  0  0  0  0
    5.8292    0.3750    0.0000 As  0  0  0  0  0  3  0  0  0  0  0  0
    9.0125    0.3750    0.0000 As  0  0  0  0  0  3  0  0  0  0  0  0
    7.3542   -2.2417    0.0000 O   0  0  0  0  0  0  0  0  0  0  0  0
    5.7667   -1.0000    0.0000 O   0  0  0  0  0  0  0  0  0  0  0  0
    4.3917    0.3750    0.0000 O   0  0  0  0  0  0  0  0  0  0  0  0
    4.4292   -2.1917    0.0000 O   0  0  0  0  0  0  0  0  0  0  0  0
    7.3917    0.3458    0.0000 O   0  0  0  0  0  0  0  0  0  0  0  0
    5.9167    1.7833    0.0000 O   0  0  0  0  0  0  0  0  0  0  0  0
  2  8  1  0
  3  7  1  0
  4 10  1  0
  5  4  1  0
  6  2  1  0
  7  1  1  0
  8  1  1  0
  9  4  1  0
 10  1  1  0
  9  3  1  0
  5  2  1  0
  6  3  1  0
M  END
>  <ID>  (1256) 


>  <MOLENAME>  (1256) 
ARSENIC TRIOXIDE

>  <therap>  (1256) 
antineoplastic, antileukemia

>  <ref>  (1256) 
Pharmacol Ther 76:141 (1997); Blood 93:268 (1999); N Engl J Med 339:1341 (1998)

>  <cas#>  (1256) 
1327-53-3

>  <source>  (1256) 
mineral

>  <status>  (1256) 
USAN, JAN

>  <tradename>  (1256) 
TRISENOX

>  <SMILES>  (1256) 
O1[As]2O[As]3O[As]1O[As](O2)O3

>  <standardized_failed>  (1256) 
False

$$$$

     RDKit          2D

 30 33  0  0  0  0  0  0  0  0999 V2000
    4.5167   -1.9375    0.0000 N   0  0  0  0  0  0  0  0  0  0  0  0
    6.9708   -2.3167    0.0000 C   0  0  0  0  0  0  0  0  0  0  0  0
    7.6875   -1.9083    0.0000 C   0  0  0  0  0  0  0  0  0  0  0  0
    4.9250   -0.4667    0.0000 C   0  0  0  0  0  0  0  0  0  0  0  0
    4.2375   -2.6542    0.0000 C   0  0  0  0  0  0  0  0  0  0  0  0
    6.2625   -1.9000    0.0000 O   0  0  0  0  0  0  0  0  0  0  0  0
    5.7958   -1.1042    0.0000 C   0  0  0  0  0  0  0  0  0  0  0  0
    5.6542   -0.2750    0.0000 C   0  0  0  0  0  0  0  0  0  0  0  0
    5.1417   -2.1792    0.0000 C   0  0  0  0  0  0  0  0  0  0  0  0
    6.9667   -3.1417    0.0000 O   0  0  0  0  0  0  0  0  0  0  0  0
    1.9583   -2.1542    0.0000 C   0  0  0  0  0  0  0  0  0  0  0  0
    3.0833   -0.0000    0.0000 C   0  0  0  0  0  0  0  0  0  0  0  0
    8.2667   -1.3167    0.0000 C   0  0  0  0  0  0  0  0  0  0  0  0
    8.2667   -2.4917    0.0000 C   0  0  0  0  0  0  0  0  0  0  0  0
    5.9042    1.4250    0.0000 Cl  0  0  0  0  0  0  0  0  0  0  0  0
    7.1000   -1.3167    0.0000 O   0  0  0  0  0  0  0  0  0  0  0  0
    3.4250   -2.0292    0.0000 C   0  0  0  0  0  0  0  0  0  0  0  0
    4.0542   -1.0625    0.0000 C   0  0  0  0  0  0  0  0  0  0  0  0
    8.0500   -0.5292    0.0000 C   0  0  0  0  0  0  0  0  0  0  0  0
    8.0500   -3.2833    0.0000 C   0  0  0  0  0  0  0  0  0  0  0  0
    9.0583   -2.2792    0.0000 C   0  0  0  0  0  0  0  0  0  0  0  0
    9.0667   -1.5292    0.0000 C   0  0  0  0  0  0  0  0  0  0  0  0
    3.3667   -0.9042    0.0000 C   0  0  0  0  0  0  0  0  0  0  0  0
    2.9875   -1.4667    0.0000 C   0  0  0  0  0  0  0  0  0  0  0  0
    8.6292   -3.8667    0.0000 C   0  0  0  0  0  0  0  0  0  0  0  0
    9.6375   -2.8583    0.0000 C   0  0  0  0  0  0  0  0  0  0  0  0
    9.6458   -0.9417    0.0000 C   0  0  0  0  0  0  0  0  0  0  0  0
    8.6250    0.0625    0.0000 C   0  0  0  0  0  0  0  0  0  0  0  0
    9.4250   -3.6542    0.0000 C   0  0  0  0  0  0  0  0  0  0  0  0
    9.4292   -0.1458    0.0000 C   0  0  0  0  0  0  0  0  0  0  0  0
  2  6  1  0
  3  2  1  0
  4  1  1  0
  5  1  1  0
  6  7  1  0
  7  8  1  0
  8  4  1  0
  9  5  1  0
 10  2  2  0
 11  5  1  0
 12  4  1  0
 13  3  1  0
 14  3  1  0
 16  3  1  0
 17  1  1  0
 18  1  1  0
 19 13  2  0
 20 14  2  0
 21 14  1  0
 22 13  1  0
 23 18  1  0
 24 17  1  0
 25 20  1  0
 26 21  2  0
 27 22  2  0
 28 19  1  0
 29 26  1  0
 30 28  2  0
 12 11  1  0
  9  7  1  0
 24 23  1  0
 29 25  2  0
 30 27  1  0
M  CHG  2   1   1  15  -1
M  END
>  <ID>  (1257) 


>  <MOLENAME>  (1257) 
TROSPIUM CHLORIDE

>  <therap>  (1257) 
anticholinergic, urinary incontenance therapy

>  <ref>  (1257) 
Curr Urology Reports 4:436 (2003); J Urology 171:2311 (2004)

>  <cas#>  (1257) 
10405-02-4

>  <source>  (1257) 
synthetic

>  <status>  (1257) 
USAN, INN, BAN, JAN

>  <tradename>  (1257) 
SANCTURA

>  <SMILES>  (1257) 
O=C(OC1CC2CCC(C1)[N+]21CCCC1)C(O)(c1ccccc1)c1ccccc1

>  <standardized_failed>  (1257) 
False

$$$$

     RDKit          2D

 31 32  0  0  0  0  0  0  0  0999 V2000
    3.8750   -2.1292    0.0000 C   0  0  0  0  0  0  0  0  0  0  0  0
    3.2250   -2.5042    0.0000 C   0  0  0  0  0  0  0  0  0  0  0  0
    3.8750   -1.3792    0.0000 C   0  0  0  0  0  0  0  0  0  0  0  0
    2.5792   -1.3792    0.0000 C   0  0  0  0  0  0  0  0  0  0  0  0
    2.5792   -2.1292    0.0000 C   0  0  0  0  0  0  0  0  0  0  0  0
    1.9292   -1.0042    0.0000 C   0  0  0  0  0  0  0  0  0  0  0  0
    3.2250   -1.0042    0.0000 O   0  0  0  0  0  0  0  0  0  0  0  0
    4.5167   -2.5042    0.0000 C   0  0  0  0  0  0  0  0  0  0  0  0
    3.2250   -3.2542    0.0000 C   0  0  0  0  0  0  0  0  0  0  0  0
    4.5167   -1.0042    0.0000 C   0  0  0  0  0  0  0  0  0  0  0  0
    1.2792   -1.3792    0.0000 C   0  0  0  0  0  0  0  0  0  0  0  0
    5.1667   -2.1292    0.0000 C   0  0  0  0  0  0  0  0  0  0  0  0
    5.1667   -1.3792    0.0000 C   0  0  0  0  0  0  0  0  0  0  0  0
    1.9292   -2.5042    0.0000 C   0  0  0  0  0  0  0  0  0  0  0  0
    2.5750   -3.6292    0.0000 C   0  0  0  0  0  0  0  0  0  0  0  0
    1.2792   -2.1292    0.0000 C   0  0  0  0  0  0  0  0  0  0  0  0
    2.0500   -3.3667    0.0000 C   0  0  0  0  0  0  0  0  0  0  0  0
    0.6417   -1.0542    0.0000 O   0  0  0  0  0  0  0  0  0  0  0  0
    1.9292   -0.2542    0.0000 Hg  0  0  0  0  0  2  0  0  0  0  0  0
    1.2667   -3.6167    0.0000 O   0  0  0  0  0  0  0  0  0  0  0  0
    5.8250   -1.0042    0.0000 O   0  0  0  0  0  0  0  0  0  0  0  0
    2.0792   -2.8667    0.0000 O   0  0  0  0  0  0  0  0  0  0  0  0
    5.8250   -2.5125    0.0000 Br  0  0  0  0  0  0  0  0  0  0  0  0
    0.6292   -2.5125    0.0000 Br  0  0  0  0  0  0  0  0  0  0  0  0
    3.8750   -3.6292    0.0000 C   0  0  0  0  0  0  0  0  0  0  0  0
    1.2875    0.1208    0.0000 O   0  0  0  0  0  0  0  0  0  0  0  0
   -0.1000   -0.9917    0.0000 Na  0  0  0  0  0 15  0  0  0  0  0  0
    0.3667   -3.6167    0.0000 Na  0  0  0  0  0 15  0  0  0  0  0  0
    2.5750   -4.3792    0.0000 C   0  0  0  0  0  0  0  0  0  0  0  0
    3.8667   -4.3792    0.0000 C   0  0  0  0  0  0  0  0  0  0  0  0
    3.2167   -4.7542    0.0000 C   0  0  0  0  0  0  0  0  0  0  0  0
  2  1  2  0
  3  1  1  0
  4  7  1  0
  5  2  1  0
  6  4  2  0
  7  3  1  0
  8  1  1  0
  9  2  1  0
 10  3  2  0
 11  6  1  0
 12  8  2  0
 13 12  1  0
 14  5  2  0
 15  9  2  0
 16 14  1  0
 17 15  1  0
 18 11  1  0
 19  6  1  0
 20 17  1  0
 21 13  2  0
 22 17  2  0
 23 12  1  0
 24 16  1  0
 25  9  1  0
 26 19  1  0
 29 15  1  0
 30 25  2  0
 31 30  1  0
  4  5  1  0
 10 13  1  0
 16 11  2  0
 31 29  2  0
M  CHG  4  18  -1  20  -1  27   1  28   1
M  END
>  <ID>  (1258) 


>  <MOLENAME>  (1258) 
MERBROMIN

>  <therap>  (1258) 
antibacterial

>  <ref>  (1258) 
J. Am. Med. Assoc. (1948), 137(10), 858-61; J. Am. Chem. Soc. (1920), 42, 2355-66; JAMA, J. Am. Med. Assoc. (1919), 73, 1483-91

>  <cas#>  (1258) 
129-16-8

>  <source>  (1258) 
synthetic

>  <status>  (1258) 
NF-XII, INN, BAN

>  <tradename>  (1258) 
nan

>  <SMILES>  (1258) 
O=C([O-])c1ccccc1-c1c2cc(Br)c(=O)cc-2oc2c([Hg]O)c([O-])c(Br)cc12.[Na+].[Na+]

>  <standardized_failed>  (1258) 
True

$$$$

     RDKit          2D

 62 68  0  0  0  0  0  0  0  0999 V2000
    8.3292   -4.6875    0.0000 C   0  0  0  0  0  0  0  0  0  0  0  0
    7.5125   -4.8250    0.0000 C   0  0  0  0  0  0  0  0  0  0  0  0
    7.2167   -5.5917    0.0000 C   0  0  0  0  0  0  0  0  0  0  0  0
    8.7750   -3.9917    0.0000 C   0  0  0  0  0  0  0  0  0  0  0  0
    9.7417   -1.0000    0.0000 C   0  0  0  0  0  0  0  0  0  0  0  0
    8.8542   -5.3250    0.0000 C   0  0  0  0  0  0  0  0  0  0  0  0
    8.5542   -6.0917    0.0000 C   0  0  0  0  0  0  0  0  0  0  0  0
    6.4042   -5.5542    0.0000 O   0  0  0  0  0  0  0  0  0  0  0  0
    6.8667   -4.3125    0.0000 C   0  0  0  0  0  0  0  0  0  0  0  0
    2.5667   -1.8167    0.0000 C   0  0  0  0  0  0  0  0  0  0  0  0
    7.7417   -6.2292    0.0000 C   0  0  0  0  0  0  0  0  0  0  0  0
   10.4542   -1.4125    0.0000 O   0  0  0  0  0  0  0  0  0  0  0  0
    1.1250   -1.8167    0.0000 C   0  0  0  0  0  0  0  0  0  0  0  0
    4.0042   -0.9917    0.0000 C   0  0  0  0  0  0  0  0  0  0  0  0
    9.0292   -3.0667    0.0000 O   0  0  0  0  0  0  0  0  0  0  0  0
    4.0000   -1.8167    0.0000 O   0  0  0  0  0  0  0  0  0  0  0  0
    0.4125   -2.2292    0.0000 O   0  0  0  0  0  0  0  0  0  0  0  0
    3.2917   -0.5792    0.0000 C   0  0  0  0  0  0  0  0  0  0  0  0
    1.1250   -1.1917    0.0000 C   0  0  0  0  0  0  0  0  0  0  0  0
    2.5750   -0.9917    0.0000 C   0  0  0  0  0  0  0  0  0  0  0  0
   -0.3083   -1.1917    0.0000 C   0  0  0  0  0  0  0  0  0  0  0  0
    5.4417   -1.0000    0.0000 C   0  0  0  0  0  0  0  0  0  0  0  0
    9.7417   -1.8292    0.0000 C   0  0  0  0  0  0  0  0  0  0  0  0
    9.0292   -0.5875    0.0000 O   0  0  0  0  0  0  0  0  0  0  0  0
    3.2875   -2.2292    0.0000 C   0  0  0  0  0  0  0  0  0  0  0  0
   11.1667   -1.0000    0.0000 C   0  0  0  0  0  0  0  0  0  0  0  0
    0.4125   -0.7792    0.0000 C   0  0  0  0  0  0  0  0  0  0  0  0
    9.0292   -2.2417    0.0000 C   0  0  0  0  0  0  0  0  0  0  0  0
   -0.3083   -1.8167    0.0000 C   0  0  0  0  0  0  0  0  0  0  0  0
    6.1625   -0.5875    0.0000 C   0  0  0  0  0  0  0  0  0  0  0  0
    1.8417   -2.2292    0.0000 O   0  0  0  0  0  0  0  0  0  0  0  0
    9.7417   -0.1667    0.0000 C   0  0  0  0  0  0  0  0  0  0  0  0
    4.7250   -0.5792    0.0000 O   0  0  0  0  0  0  0  0  0  0  0  0
   10.4542    0.2458    0.0000 C   0  0  0  0  0  0  0  0  0  0  0  0
    6.8792   -1.0000    0.0000 C   0  0  0  0  0  0  0  0  0  0  0  0
    6.1875   -4.7667    0.0000 C   0  0  0  0  0  0  0  0  0  0  0  0
    6.8667   -3.4792    0.0000 C   0  0  0  0  0  0  0  0  0  0  0  0
    9.3000   -4.6375    0.0000 O   0  0  0  0  0  0  0  0  0  0  0  0
    6.1542   -3.0750    0.0000 C   0  0  0  0  0  0  0  0  0  0  0  0
   11.1667   -0.1667    0.0000 C   0  0  0  0  0  0  0  0  0  0  0  0
    8.3125   -1.8292    0.0000 C   0  0  0  0  0  0  0  0  0  0  0  0
    8.3125   -1.0000    0.0000 C   0  0  0  0  0  0  0  0  0  0  0  0
    5.4417   -1.8292    0.0000 C   0  0  0  0  0  0  0  0  0  0  0  0
    6.1542   -2.2417    0.0000 C   0  0  0  0  0  0  0  0  0  0  0  0
    7.5167   -4.0000    0.0000 O   0  0  0  0  0  0  0  0  0  0  0  0
    7.5917   -0.5875    0.0000 C   0  0  0  0  0  0  0  0  0  0  0  0
   11.8917   -1.4167    0.0000 C   0  0  0  0  0  0  0  0  0  0  0  0
    7.4542   -7.0125    0.0000 O   0  0  0  0  0  0  0  0  0  0  0  0
   -1.1000   -0.9625    0.0000 O   0  0  0  0  0  0  0  0  0  0  0  0
    1.8542   -0.5792    0.0000 O   0  0  0  0  0  0  0  0  0  0  0  0
    0.4125    0.0458    0.0000 O   0  0  0  0  0  0  0  0  0  0  0  0
    9.0792   -6.7417    0.0000 C   0  0  0  0  0  0  0  0  0  0  0  0
    6.1625    0.2375    0.0000 C   0  0  0  0  0  0  0  0  0  0  0  0
    3.2875   -3.0542    0.0000 C   0  0  0  0  0  0  0  0  0  0  0  0
   -1.1000   -2.0542    0.0000 C   0  0  0  0  0  0  0  0  0  0  0  0
   11.8917    0.2500    0.0000 C   0  0  0  0  0  0  0  0  0  0  0  0
    4.7250   -2.2500    0.0000 C   0  0  0  0  0  0  0  0  0  0  0  0
   11.8875   -2.2542    0.0000 C   0  0  0  0  0  0  0  0  0  0  0  0
   12.6042   -1.0042    0.0000 C   0  0  0  0  0  0  0  0  0  0  0  0
   -0.4125    0.5083    0.0000 C   0  0  0  0  0  0  0  0  0  0  0  0
    1.8667    0.3458    0.0000 C   0  0  0  0  0  0  0  0  0  0  0  0
   11.1750   -2.6625    0.0000 C   0  0  0  0  0  0  0  0  0  0  0  0
  2  1  1  0
  3  2  1  0
  1  4  1  0
  5 23  1  1
  1  6  1  6
  7  6  2  0
  3  8  1  1
  9  2  1  0
 10 20  1  0
 11  7  1  0
  5 12  1  0
 13 31  1  6
 33 14  1  0
 15  4  1  0
 16 14  1  0
 17 13  1  0
 18 14  1  0
 19 13  1  0
 20 18  1  0
 21 27  1  0
 22 43  1  0
 28 23  1  1
 24 42  1  0
 25 16  1  0
 26 12  1  0
 27 19  1  0
 28 15  1  0
 29 17  1  0
 30 35  2  0
 31 10  1  0
  5 32  1  0
 22 33  1  6
 34 32  2  0
 35 46  1  0
 36  9  1  0
 37  9  2  0
 38  4  2  0
 39 37  1  0
 40 34  1  0
 41 28  1  0
 42 41  1  0
 43 44  1  0
 44 39  2  0
  2 45  1  6
 42 46  1  1
 26 47  1  1
 11 48  1  1
 21 49  1  6
 20 50  1  1
 27 51  1  1
 52  7  1  0
 53 30  1  0
 25 54  1  1
 29 55  1  1
 40 56  1  6
 43 57  1  6
 58 47  1  0
 59 47  1  0
 60 51  1  0
 61 50  1  0
 62 58  1  0
  3 11  1  0
  8 36  1  0
 24  5  1  0
 30 22  1  0
 40 26  1  0
 10 25  1  0
 21 29  1  0
M  END
>  <ID>  (1259) 


>  <MOLENAME>  (1259) 
ABAMECTIN (avermectin B1a shown)

>  <therap>  (1259) 
antiparisitic

>  <ref>  (1259) 
Prog Clin Biol Res 97:373 (1982); Biochem Soc Trans 15:65 (1987)

>  <cas#>  (1259) 
71751-41-2

>  <source>  (1259) 
Streptomyces avermitilis; MK-956

>  <status>  (1259) 
USP, INN, BAN

>  <tradename>  (1259) 
AGRI-MEK

>  <SMILES>  (1259) 
CCC(C)[C@H]1O[C@]2(C=C[C@@H]1C)C[C@@H]1C[C@@H](C/C=C(\C)[C@@H](OC3C[C@H](OC)C(O[C@H]4C[C@H](OC)[C@@H](O)[C@H](C)O4)[C@H](C)O3)[C@@H](C)/C=C/C=C3\CO[C@@H]4[C@H](O)C(C)=C[C@@H](C(=O)O1)[C@]34O)O2

>  <standardized_failed>  (1259) 
False

$$$$

     RDKit          2D

 30 32  0  0  0  0  0  0  0  0999 V2000
    3.5625   -5.8042    0.0000 C   0  0  0  0  0  0  0  0  0  0  0  0
    4.2750   -5.3875    0.0000 C   0  0  0  0  0  0  0  0  0  0  0  0
    7.1292   -4.5542    0.0000 C   0  0  0  0  0  0  0  0  0  0  0  0
    3.5625   -6.6333    0.0000 C   0  0  0  0  0  0  0  0  0  0  0  0
    4.9917   -5.7958    0.0000 N   0  0  0  0  0  0  0  0  0  0  0  0
    5.7042   -5.3833    0.0000 C   0  0  0  0  0  0  0  0  0  0  0  0
    7.1292   -5.3792    0.0000 C   0  0  0  0  0  0  0  0  0  0  0  0
    6.4042   -4.1458    0.0000 C   0  0  0  0  0  0  0  0  0  0  0  0
    6.4167   -5.7958    0.0000 C   0  0  0  0  0  0  0  0  0  0  0  0
    2.8458   -7.0458    0.0000 C   0  0  0  0  0  0  0  0  0  0  0  0
    7.8417   -4.1375    0.0000 C   0  0  0  0  0  0  0  0  0  0  0  0
    7.8292   -2.4875    0.0000 N   0  0  0  0  0  0  0  0  0  0  0  0
    5.6958   -4.5625    0.0000 C   0  0  0  0  0  0  0  0  0  0  0  0
    7.8375   -3.3125    0.0000 C   0  0  0  0  0  0  0  0  0  0  0  0
    2.1333   -6.6333    0.0000 C   0  0  0  0  0  0  0  0  0  0  0  0
    2.8458   -5.3917    0.0000 C   0  0  0  0  0  0  0  0  0  0  0  0
    8.5542   -4.5458    0.0000 C   0  0  0  0  0  0  0  0  0  0  0  0
    2.1333   -5.8042    0.0000 C   0  0  0  0  0  0  0  0  0  0  0  0
    4.2708   -4.5625    0.0000 O   0  0  0  0  0  0  0  0  0  0  0  0
    9.2625   -4.1292    0.0000 C   0  0  0  0  0  0  0  0  0  0  0  0
    8.5583   -5.3708    0.0000 C   0  0  0  0  0  0  0  0  0  0  0  0
    7.8458   -5.7917    0.0000 Cl  0  0  0  0  0  0  0  0  0  0  0  0
    2.8458   -7.8708    0.0000 I   0  0  0  0  0  0  0  0  0  0  0  0
    4.2792   -7.0458    0.0000 O   0  0  0  0  0  0  0  0  0  0  0  0
    9.9875   -5.3625    0.0000 C   0  0  0  0  0  0  0  0  0  0  0  0
    1.4208   -5.3958    0.0000 I   0  0  0  0  0  0  0  0  0  0  0  0
    9.2750   -5.7792    0.0000 C   0  0  0  0  0  0  0  0  0  0  0  0
    9.9792   -4.5333    0.0000 C   0  0  0  0  0  0  0  0  0  0  0  0
   10.7042   -5.7708    0.0000 Cl  0  0  0  0  0  0  0  0  0  0  0  0
    4.9792   -4.1542    0.0000 C   0  0  0  0  0  0  0  0  0  0  0  0
  2  1  1  0
  3  8  2  0
  4  1  2  0
  5  2  1  0
  6  5  1  0
  7  9  2  0
  8 13  1  0
  9  6  1  0
 10  4  1  0
 11  3  1  0
 12 14  3  0
 13  6  2  0
 14 11  1  0
 15 18  1  0
 16  1  1  0
 17 11  1  0
 18 16  2  0
 19  2  2  0
 20 17  2  0
 21 17  1  0
 22  7  1  0
 23 10  1  0
 24  4  1  0
 25 28  2  0
 26 18  1  0
 27 21  2  0
 28 20  1  0
 29 25  1  0
 30 13  1  0
 10 15  2  0
  3  7  1  0
 25 27  1  0
M  END
>  <ID>  (1260) 


>  <MOLENAME>  (1260) 
CLOSANTEL

>  <therap>  (1260) 
anthelmintic

>  <ref>  (1260) 
J Parasitol 68:616 (1983); 70:446 (1984)

>  <cas#>  (1260) 
57808-65-8

>  <source>  (1260) 
synthetic; R-31520

>  <status>  (1260) 
USAN, INN, BAN

>  <tradename>  (1260) 
FLUKIVER

>  <SMILES>  (1260) 
Cc1c(NC(=O)c2c(O)c(I)cc(I)c2)cc(Cl)c(C(C#N)c2ccc(Cl)cc2)c1

>  <standardized_failed>  (1260) 
False

$$$$

     RDKit          2D

 26 28  0  0  0  0  0  0  0  0999 V2000
    1.3750    0.7208    0.0000 C   0  0  0  0  0  0  0  0  0  0  0  0
    0.9625   -0.0000    0.0000 C   0  0  0  0  0  0  0  0  0  0  0  0
    1.7875   -0.0000    0.0000 C   0  0  0  0  0  0  0  0  0  0  0  0
    0.2417   -0.4042    0.0000 C   0  0  0  0  0  0  0  0  0  0  0  0
    2.5000   -0.4125    0.0000 C   0  0  0  0  0  0  0  0  0  0  0  0
   -0.4708    0.0083    0.0000 C   0  0  0  0  0  0  0  0  0  0  0  0
    3.2125   -0.0000    0.0000 O   0  0  0  0  0  0  0  0  0  0  0  0
    2.4917   -1.2375    0.0000 O   0  0  0  0  0  0  0  0  0  0  0  0
    6.7792   -0.4167    0.0000 O   0  0  0  0  0  0  0  0  0  0  0  0
    6.0667   -0.0042    0.0000 C   0  0  0  0  0  0  0  0  0  0  0  0
    0.7875    1.3083    0.0000 C   0  0  0  0  0  0  0  0  0  0  0  0
    1.9542    1.3083    0.0000 C   0  0  0  0  0  0  0  0  0  0  0  0
   -0.4625    0.8333    0.0000 Cl  0  0  0  0  0  0  0  0  0  0  0  0
   -1.1833   -0.4000    0.0000 Cl  0  0  0  0  0  0  0  0  0  0  0  0
    5.3500   -0.4167    0.0000 C   0  0  0  0  0  0  0  0  0  0  0  0
    3.9250   -0.4125    0.0000 C   0  0  0  0  0  0  0  0  0  0  0  0
    4.6417   -0.0000    0.0000 C   0  0  0  0  0  0  0  0  0  0  0  0
    6.7792   -1.2417    0.0000 C   0  0  0  0  0  0  0  0  0  0  0  0
    5.3500    1.2333    0.0000 C   0  0  0  0  0  0  0  0  0  0  0  0
    6.0667    0.8208    0.0000 C   0  0  0  0  0  0  0  0  0  0  0  0
    4.6375    0.8208    0.0000 C   0  0  0  0  0  0  0  0  0  0  0  0
    6.0625   -1.6542    0.0000 C   0  0  0  0  0  0  0  0  0  0  0  0
    7.4917   -1.6542    0.0000 C   0  0  0  0  0  0  0  0  0  0  0  0
    7.4917   -2.4750    0.0000 C   0  0  0  0  0  0  0  0  0  0  0  0
    6.0542   -2.4750    0.0000 C   0  0  0  0  0  0  0  0  0  0  0  0
    6.7750   -2.8917    0.0000 C   0  0  0  0  0  0  0  0  0  0  0  0
  2  1  1  0
  3  1  1  0
  4  2  1  0
  5  3  1  0
  6  4  2  0
  7  5  1  0
  8  5  2  0
  9 10  1  0
 10 15  2  0
 11  1  1  0
 12  1  1  0
 13  6  1  0
 14  6  1  0
 15 17  1  0
 16  7  1  0
 17 16  1  0
 18  9  1  0
 19 21  1  0
 20 19  2  0
 21 17  2  0
 22 18  2  0
 23 18  1  0
 24 23  2  0
 25 22  1  0
 26 24  1  0
  2  3  1  0
 20 10  1  0
 26 25  2  0
M  END
>  <ID>  (1261) 


>  <MOLENAME>  (1261) 
PERMETHRIN

>  <therap>  (1261) 
ectoparasiticide, CNS stimuant, mutagen

>  <ref>  (1261) 
Int J Dermatol 24:603 (1985); Crit Rev Toxicol 21:105 (1990); Mutag 7:433 (1992); J Pesticide Reform 18:14 (1998)

>  <cas#>  (1261) 
52341-33-0, 52645-53-1

>  <source>  (1261) 
synthetic; FMC-33297, NRDC-143, UNII-509F88P9SZ

>  <status>  (1261) 
USAN, INN, BAN

>  <tradename>  (1261) 
VECTRA-3D

>  <SMILES>  (1261) 
CC1(C)C(C=C(Cl)Cl)C1C(=O)OCc1cccc(Oc2ccccc2)c1

>  <standardized_failed>  (1261) 
False

$$$$

     RDKit          2D

 35 37  0  0  0  0  0  0  0  0999 V2000
    3.8792   -4.4792    0.0000 N   0  0  0  0  0  0  0  0  0  0  0  0
    3.8792   -3.1167    0.0000 C   0  0  0  0  0  0  0  0  0  0  0  0
    4.3667   -3.7917    0.0000 C   0  0  0  0  0  0  0  0  0  0  0  0
    6.1792    1.9375    0.0000 P   0  0  0  0  0  0  0  0  0  0  0  0
    3.0875   -3.3792    0.0000 C   0  0  0  0  0  0  0  0  0  0  0  0
    3.0875   -4.2042    0.0000 C   0  0  0  0  0  0  0  0  0  0  0  0
    4.2167   -2.3667    0.0000 C   0  0  0  0  0  0  0  0  0  0  0  0
    5.7458    2.7500    0.0000 O   0  0  0  0  0  0  0  0  0  0  0  0
    3.7292   -1.6917    0.0000 O   0  0  0  0  0  0  0  0  0  0  0  0
    9.8917   -1.2542    0.0000 C   0  0  0  0  0  0  0  0  0  0  0  0
    9.1750   -0.8417    0.0000 C   0  0  0  0  0  0  0  0  0  0  0  0
    6.8958    2.3500    0.0000 O   0  0  0  0  0  0  0  0  0  0  0  0
    5.4667    1.5333    0.0000 O   0  0  0  0  0  0  0  0  0  0  0  0
    6.5917    1.2250    0.0000 O   0  0  0  0  0  0  0  0  0  0  0  0
    4.0542   -0.9292    0.0000 C   0  0  0  0  0  0  0  0  0  0  0  0
    4.8750   -0.8417    0.0000 C   0  0  0  0  0  0  0  0  0  0  0  0
    5.2000   -3.7042    0.0000 C   0  0  0  0  0  0  0  0  0  0  0  0
    6.3042   -0.8417    0.0000 N   0  0  0  0  0  0  0  0  0  0  0  0
    9.8917   -2.0917    0.0000 O   0  0  0  0  0  0  0  0  0  0  0  0
    8.4542   -1.2542    0.0000 O   0  0  0  0  0  0  0  0  0  0  0  0
    4.8750   -0.0167    0.0000 O   0  0  0  0  0  0  0  0  0  0  0  0
    2.3625   -2.9667    0.0000 C   0  0  0  0  0  0  0  0  0  0  0  0
    2.3625   -4.6292    0.0000 C   0  0  0  0  0  0  0  0  0  0  0  0
    5.5375   -2.9417    0.0000 C   0  0  0  0  0  0  0  0  0  0  0  0
    5.0417   -2.2792    0.0000 C   0  0  0  0  0  0  0  0  0  0  0  0
    5.5917   -1.2542    0.0000 C   0  0  0  0  0  0  0  0  0  0  0  0
   10.6000   -0.8417    0.0000 C   0  0  0  0  0  0  0  0  0  0  0  0
    9.1750   -0.0292    0.0000 C   0  0  0  0  0  0  0  0  0  0  0  0
    7.0250   -1.2542    0.0000 C   0  0  0  0  0  0  0  0  0  0  0  0
    7.7417   -0.8417    0.0000 C   0  0  0  0  0  0  0  0  0  0  0  0
    9.1750   -2.5042    0.0000 C   0  0  0  0  0  0  0  0  0  0  0  0
    1.6500   -3.3792    0.0000 C   0  0  0  0  0  0  0  0  0  0  0  0
    1.6500   -4.2042    0.0000 C   0  0  0  0  0  0  0  0  0  0  0  0
   10.6000   -0.0292    0.0000 C   0  0  0  0  0  0  0  0  0  0  0  0
    9.8792    0.3833    0.0000 C   0  0  0  0  0  0  0  0  0  0  0  0
  2  3  2  0
  3  1  1  0
  5  6  2  0
  6  1  1  0
  7  2  1  0
  8  4  2  0
  9  7  1  0
 10 11  2  0
 11 20  1  0
 12  4  1  0
 13  4  1  0
 14  4  1  0
 15  9  1  0
 16 15  1  0
 17  3  1  0
 18 26  1  0
 19 10  1  0
 20 30  1  0
 21 16  1  0
 22  5  1  0
 23  6  1  0
 24 17  2  0
 25  7  2  0
 26 16  1  0
 27 10  1  0
 28 11  1  0
 29 18  1  0
 30 29  1  0
 31 19  1  0
 32 22  2  0
 33 23  2  0
 34 35  1  0
 35 28  2  0
  5  2  1  0
 33 32  1  0
 24 25  1  0
 27 34  2  0
M  END
>  <ID>  (1262) 


>  <MOLENAME>  (1262) 
CARVEDILOL PHOSPHATE

>  <therap>  (1262) 
antianginal, antihypertensive

>  <ref>  (1262) 
Cryst Growth Des 10:2713 (2010); J Pharmaceut Sci Technol 65:12 (2011)

>  <cas#>  (1262) 
610309-89-2

>  <source>  (1262) 
synthetic; SK&F-105517-D

>  <status>  (1262) 
USAN

>  <tradename>  (1262) 
COREG CR

>  <SMILES>  (1262) 
COc1c(OCCNCC(O)COc2cccc3c2c2c(cccc2)[nH]3)cccc1

>  <standardized_failed>  (1262) 
False

$$$$

     RDKit          2D

 37 34  0  4  0  0  0  0  0  0999 V2000
   -1.3792   -1.6542    0.0000 C   0  0  0  0  0  0  0  0  0  0  0  0
   -0.5542   -1.6542    0.0000 C   0  0  0  0  0  0  0  0  0  0  0  0
   -1.3833   -2.4792    0.0000 C   0  0  0  0  0  0  0  0  0  0  0  0
   -2.0999   -2.8881    0.0000 N   0  0  0  0  0  0  0  0  0  0  0  0
    1.3333   -1.3417    0.0000 O   0  0  0  0  0  0  0  0  0  0  0  0
    1.7500   -2.0583    0.0000 C   0  0  0  0  0  0  0  0  0  0  0  0
    2.1623   -1.3392    0.0000 C   0  0  0  0  0  0  0  0  0  0  0  0
    1.7525   -2.8833    0.0000 C   0  0  0  0  0  0  0  0  0  0  0  0
    1.0393   -3.2980    0.0000 Cl  0  0  0  0  0  0  0  0  0  0  0  0
    3.6833   -1.4625    0.0000 C   0  0  0  0  0  0  0  0  0  0  0  0
    4.5083   -1.4625    0.0000 C   0  0  0  0  0  0  0  0  0  0  0  0
    3.6792   -2.2875    0.0000 C   0  0  0  0  0  0  0  0  0  0  0  0
    4.5042   -2.2875    0.0000 N   0  0  0  0  0  0  0  0  0  0  0  0
    5.0875   -2.8667    0.0000 C   0  0  0  0  0  0  0  0  0  0  0  0
    5.8833   -2.6542    0.0000 C   0  0  0  0  0  0  0  0  0  0  0  0
    6.4667   -3.2333    0.0000 C   0  0  0  0  0  0  0  0  0  0  0  0
    7.2625   -3.0208    0.0000 C   0  0  0  0  0  0  0  0  0  0  0  0
    7.4749   -2.2237    0.0000 C   0  0  0  0  0  0  0  0  0  0  0  0
    8.2715   -2.0090    0.0000 C   0  0  0  0  0  0  0  0  0  0  0  0
    8.8557   -2.5916    0.0000 N   0  0  0  0  0  0  0  0  0  0  0  0
    8.6433   -3.3888    0.0000 C   0  0  0  0  0  0  0  0  0  0  0  0
    9.6523   -2.3770    0.0000 C   0  0  0  0  0  0  0  0  0  0  0  0
    9.4375   -3.1708    0.0000 C   0  0  0  0  0  0  0  0  0  0  0  0
   11.1792   -1.4833    0.0000 C   0  0  0  0  0  0  0  0  0  0  0  0
   12.0042   -1.4833    0.0000 C   0  0  0  0  0  0  0  0  0  0  0  0
   11.1750   -2.3333    0.0000 C   0  0  0  0  0  0  0  0  0  0  0  0
   12.0000   -2.3333    0.0000 N   0  0  0  0  0  0  0  0  0  0  0  0
   12.2125   -3.1542    0.0000 C   0  0  0  0  0  0  0  0  0  0  0  0
   12.9250   -3.5750    0.0000 C   0  0  0  0  0  0  0  0  0  0  0  0
   13.6375   -3.1500    0.0000 C   0  0  0  0  0  0  0  0  0  0  0  0
   14.3500   -3.5708    0.0000 C   0  0  0  0  0  0  0  0  0  0  0  0
   15.0625   -3.1458    0.0000 C   0  0  0  0  0  0  0  0  0  0  0  0
   15.7750   -3.5708    0.0000 C   0  0  0  0  0  0  0  0  0  0  0  0
   16.4875   -3.1458    0.0000 C   0  0  0  0  0  0  0  0  0  0  0  0
   16.4865   -2.2958    0.0000 C   0  0  0  0  0  0  0  0  0  0  0  0
   15.7715   -1.8717    0.0000 C   0  0  0  0  0  0  0  0  0  0  0  0
   15.0576   -2.2975    0.0000 C   0  0  0  0  0  0  0  0  0  0  0  0
  8  9  1  0
 16 17  1  0
 17 18  1  0
 18 19  1  0
 19 20  1  0
 20 21  1  0
 20 22  1  0
 20 23  1  0
 10 11  1  0
 10 12  1  0
 12 13  1  0
 13 14  1  0
 14 15  1  0
 15 16  1  0
  1  2  1  0
  1  3  1  0
  3  4  1  0
  6  5  1  0
  7  6  1  0
  5  7  1  0
  6  8  1  0
 24 25  1  0
 24 26  1  0
 26 27  1  0
 27 28  1  0
 28 29  1  0
 29 30  1  0
 30 31  1  0
 31 32  1  0
 32 33  1  0
 33 34  1  0
 34 35  1  0
 35 36  1  0
 36 37  1  0
M  CHG  1  20   1
M  STY  4   1 SRU   2 SRU   3 SRU   4 SRU
M  SLB  4   1   1   2   2   3   3   4   4
M  SCN  4   1 HT    2 HT    3 HT    4 HT 
M  SAL   1 14  24  25  26  27  28  29  30  31  32  33  34  35  36  37
M  SDI   1  4   10.7500   -3.6500   10.7500   -1.2500
M  SDI   1  4   16.9000   -1.2500   16.9000   -3.6500
M  SMT   1 p
M  SAL   2  5   5   6   7   8   9
M  SDI   2  4    0.3500   -3.6000    0.3500   -1.2000
M  SDI   2  4    2.5500   -1.2000    2.5500   -3.6000
M  SAL   3  4   1   2   3   4
M  SDI   3  4   -2.5500   -3.6000   -2.5500   -1.2000
M  SDI   3  4   -0.4500   -1.2000   -0.4500   -3.6000
M  SMT   3 m
M  SAL   4 14  10  11  12  13  14  15  16  17  18  19  20  21  22  23
M  SDI   4  4    3.2500   -3.6000    3.2500   -1.2500
M  SDI   4  4   10.0500   -1.2500   10.0500   -3.6000
M  SMT   4 o
M  END
>  <ID>  (1263) 


>  <MOLENAME>  (1263) 
COLESEVALAM HYDROCHLORIDE (high mol wt copolymer @10mg/ml)

>  <therap>  (1263) 
antihyperlipidemic, cholesterol sequestrant

>  <ref>  (1263) 
Mayo Clin Proc 76:971 (2001); Ann Pharmacother 35:898 (2001)

>  <cas#>  (1263) 
182815-44-7

>  <source>  (1263) 
synthetic; GT-31-104

>  <status>  (1263) 
USAN, INN

>  <tradename>  (1263) 
WELCHOL

>  <SMILES>  (1263) 
CCCCCCCCCCNCCC.CCCN.CCCNCCCCCC[N+](C)(C)C.ClCC1CO1

>  <standardized_failed>  (1263) 
False

$$$$

     RDKit          2D

 21 23  0  0  0  0  0  0  0  0999 V2000
    7.4875   -2.0125    0.0000 N   0  0  0  0  0  0  0  0  0  0  0  0
    6.7042   -1.7583    0.0000 C   0  0  0  0  0  0  0  0  0  0  0  0
    7.7458   -2.8000    0.0000 C   0  0  0  0  0  0  0  0  0  0  0  0
    6.7042   -0.9333    0.0000 C   0  0  0  0  0  0  0  0  0  0  0  0
    5.9875   -2.1750    0.0000 N   0  0  0  0  0  0  0  0  0  0  0  0
    7.4875   -0.6750    0.0000 N   0  0  0  0  0  0  0  0  0  0  0  0
    7.2625   -3.4667    0.0000 C   0  0  0  0  0  0  0  0  0  0  0  0
    7.9750   -1.3458    0.0000 C   0  0  0  0  0  0  0  0  0  0  0  0
    5.2750   -0.9375    0.0000 N   0  0  0  0  0  0  0  0  0  0  0  0
    8.5333   -3.0542    0.0000 O   0  0  0  0  0  0  0  0  0  0  0  0
    5.9875   -0.5208    0.0000 C   0  0  0  0  0  0  0  0  0  0  0  0
    5.2750   -1.7625    0.0000 C   0  0  0  0  0  0  0  0  0  0  0  0
    7.7500   -4.1333    0.0000 C   0  0  0  0  0  0  0  0  0  0  0  0
    8.5333   -3.8792    0.0000 C   0  0  0  0  0  0  0  0  0  0  0  0
    6.4375   -3.4708    0.0000 O   0  0  0  0  0  0  0  0  0  0  0  0
    4.5583   -2.1750    0.0000 N   0  0  0  0  0  0  0  0  0  0  0  0
    7.4958   -4.9208    0.0000 O   0  0  0  0  0  0  0  0  0  0  0  0
    5.9833    0.3042    0.0000 O   0  0  0  0  0  0  0  0  0  0  0  0
    9.2000   -4.3625    0.0000 C   0  0  0  0  0  0  0  0  0  0  0  0
    9.1167   -5.1833    0.0000 O   0  0  0  0  0  0  0  0  0  0  0  0
    6.7000    0.7167    0.0000 C   0  0  0  0  0  0  0  0  0  0  0  0
  2  1  1  0
  1  3  1  0
  4  2  1  0
  5  2  2  0
  6  8  2  0
  7  3  1  0
  8  1  1  0
  9 12  2  0
 10  3  1  0
 11  4  2  0
 12  5  1  0
 13  7  1  0
 14 10  1  0
  7 15  1  6
 16 12  1  0
 13 17  1  1
 18 11  1  0
 14 19  1  6
 20 19  1  0
 21 18  1  0
  4  6  1  0
  9 11  1  0
 14 13  1  0
M  END
>  <ID>  (1264) 


>  <MOLENAME>  (1264) 
NELARABIN

>  <therap>  (1264) 
antineoplastic

>  <ref>  (1264) 
Cancer Res. (1995), 55(15), 3352-6; Antimicrob. Agents Chemother. (1991), 35(5), 851-7; Drugs (2008), 68(4), 439-447

>  <cas#>  (1264) 
121032-29-9

>  <source>  (1264) 
synthetic; MAY-506-U

>  <status>  (1264) 
USAN, BAN

>  <tradename>  (1264) 
ARRANON

>  <SMILES>  (1264) 
COc1c2ncn(C3O[C@H](CO)[C@@H](O)[C@@H]3O)c2nc(N)n1

>  <standardized_failed>  (1264) 
False

$$$$

     RDKit          2D

 20 19  0  0  0  0  0  0  0  0999 V2000
    5.0542   -1.8625    0.0000 N   0  0  0  0  0  0  0  0  0  0  0  0
    7.1917   -2.2750    0.0000 N   0  0  0  0  0  0  0  0  0  0  0  0
    4.3417   -2.2750    0.0000 C   0  0  0  0  0  0  0  0  0  0  0  0
    7.9042   -1.8625    0.0000 C   0  0  0  0  0  0  0  0  0  0  0  0
    5.0542   -1.0375    0.0000 C   0  0  0  0  0  0  0  0  0  0  0  0
    7.1917   -3.1000    0.0000 C   0  0  0  0  0  0  0  0  0  0  0  0
    5.7667   -2.2750    0.0000 C   0  0  0  0  0  0  0  0  0  0  0  0
    6.4792   -1.8625    0.0000 C   0  0  0  0  0  0  0  0  0  0  0  0
    2.9167   -2.2750    0.0000 O   0  0  0  0  0  0  0  0  0  0  0  0
    5.7667    0.2000    0.0000 O   0  0  0  0  0  0  0  0  0  0  0  0
    9.3292   -1.8625    0.0000 O   0  0  0  0  0  0  0  0  0  0  0  0
    6.4750   -4.3375    0.0000 O   0  0  0  0  0  0  0  0  0  0  0  0
    3.6292   -1.8625    0.0000 C   0  0  0  0  0  0  0  0  0  0  0  0
    8.6167   -2.2750    0.0000 C   0  0  0  0  0  0  0  0  0  0  0  0
    6.4750   -3.5125    0.0000 C   0  0  0  0  0  0  0  0  0  0  0  0
    5.7667   -0.6250    0.0000 C   0  0  0  0  0  0  0  0  0  0  0  0
    6.4792   -1.0375    0.0000 C   0  0  0  0  0  0  0  0  0  0  0  0
    3.6292   -1.0375    0.0000 C   0  0  0  0  0  0  0  0  0  0  0  0
    5.7625   -3.1000    0.0000 C   0  0  0  0  0  0  0  0  0  0  0  0
    8.6167   -3.1000    0.0000 C   0  0  0  0  0  0  0  0  0  0  0  0
  2  8  1  0
  3  1  1  0
  4  2  1  0
  5  1  1  0
  6  2  1  0
  7  1  1  0
  8  7  1  0
  9 13  1  0
 10 16  1  0
 11 14  1  0
 12 15  1  0
 13  3  1  0
 14  4  1  0
 15  6  1  0
 16  5  1  0
 17 16  1  0
 18 13  1  0
 19 15  1  0
 20 14  1  0
M  END
>  <ID>  (1265) 


>  <MOLENAME>  (1265) 
EDITOL

>  <therap>  (1265) 
alkylising agent

>  <ref>  (1265) 
Pharmazie (1991), 46(9), 646-50; J. Immunopharmacol. (1985), 7(3), 303-12; J. Drugs Dermatol. (2011), 10(10), 1102-5

>  <cas#>  (1265) 
102-60-3

>  <source>  (1265) 
synthetic

>  <status>  (1265) 
USAN

>  <tradename>  (1265) 
QUADROL

>  <SMILES>  (1265) 
CC(O)CN(CCN(CC(C)O)CC(C)O)CC(C)O

>  <standardized_failed>  (1265) 
False

$$$$

     RDKit          2D

  8  8  0  0  0  0  0  0  0  0999 V2000
    5.8000   -4.3792    0.0000 N   0  0  0  0  0  0  0  0  0  0  0  0
    5.0917   -3.9750    0.0000 C   0  0  0  0  0  0  0  0  0  0  0  0
    6.5125   -3.9750    0.0000 C   0  0  0  0  0  0  0  0  0  0  0  0
    5.8000   -2.7292    0.0000 C   0  0  0  0  0  0  0  0  0  0  0  0
    6.5125   -3.1500    0.0000 C   0  0  0  0  0  0  0  0  0  0  0  0
    5.0917   -3.1500    0.0000 C   0  0  0  0  0  0  0  0  0  0  0  0
    4.3750   -4.3875    0.0000 C   0  0  0  0  0  0  0  0  0  0  0  0
    7.2292   -4.3875    0.0000 C   0  0  0  0  0  0  0  0  0  0  0  0
  2  1  1  0
  3  1  1  0
  4  5  1  0
  5  3  1  0
  6  2  1  0
  7  2  1  0
  8  3  1  0
  4  6  1  0
M  END
>  <ID>  (1266) 


>  <MOLENAME>  (1266) 
NANOFIN

>  <therap>  (1266) 
antihypertensive, ganglioplegic

>  <ref>  (1266) 
Farmakol. Toksikol. (1961), 24, 304-9. ; Nature (1959), 184(Suppl. No. 22), 1707-9

>  <cas#>  (1266) 
504-03-0

>  <source>  (1266) 
synthetic

>  <status>  (1266) 
INN

>  <tradename>  (1266) 
NANOPHIN

>  <SMILES>  (1266) 
CC1CCCC(C)N1

>  <standardized_failed>  (1266) 
False

$$$$

     RDKit          2D

 12 12  0  0  0  0  0  0  0  0999 V2000
    4.8250   -5.4750    0.0000 C   0  0  0  0  0  0  0  0  0  0  0  0
    4.8250   -4.6500    0.0000 C   0  0  0  0  0  0  0  0  0  0  0  0
    4.1125   -4.2292    0.0000 C   0  0  0  0  0  0  0  0  0  0  0  0
    3.4042   -4.6500    0.0000 C   0  0  0  0  0  0  0  0  0  0  0  0
    4.1125   -5.8792    0.0000 O   0  0  0  0  0  0  0  0  0  0  0  0
    3.4042   -5.4750    0.0000 C   0  0  0  0  0  0  0  0  0  0  0  0
    5.5417   -4.2375    0.0000 C   0  0  0  0  0  0  0  0  0  0  0  0
    5.5417   -5.8875    0.0000 O   0  0  0  0  0  0  0  0  0  0  0  0
    4.1125   -3.4042    0.0000 O   0  0  0  0  0  0  0  0  0  0  0  0
    5.5458   -3.4125    0.0000 O   0  0  0  0  0  0  0  0  0  0  0  0
    2.6875   -5.8875    0.0000 C   0  0  0  0  0  0  0  0  0  0  0  0
    6.2542   -4.6542    0.0000 C   0  0  0  0  0  0  0  0  0  0  0  0
  2  1  1  0
  3  2  1  0
  4  3  1  0
  5  1  1  0
  6  5  1  0
  7  2  1  0
  8  1  2  0
  9  3  2  0
 10  7  2  0
 11  6  1  0
 12  7  1  0
  6  4  2  0
M  END
>  <ID>  (1267) 


>  <MOLENAME>  (1267) 
DEHYDROACETIC ACID

>  <therap>  (1267) 
antifungal, antibacterial

>  <ref>  (1267) 
J Pharmacol Exp Ther 99:57 (1950)

>  <cas#>  (1267) 
520-45-6

>  <source>  (1267) 
synthetic

>  <status>  (1267) 
NF-XVII

>  <tradename>  (1267) 
DHA

>  <SMILES>  (1267) 
CC(=O)C1C(=O)C=C(C)OC1=O

>  <standardized_failed>  (1267) 
False

$$$$

     RDKit          2D

 16 16  0  0  0  0  0  0  0  0999 V2000
    0.0667   -1.4750    0.0000 P   0  0  0  0  0  0  0  0  0  0  0  0
    0.4750   -0.7542    0.0000 S   0  0  0  0  0  0  0  0  0  0  0  0
    0.7792   -1.8875    0.0000 O   0  0  0  0  0  0  0  0  0  0  0  0
    2.9250   -1.4750    0.0000 C   0  0  0  0  0  0  0  0  0  0  0  0
    2.9250   -0.6417    0.0000 C   0  0  0  0  0  0  0  0  0  0  0  0
    2.2042   -1.8875    0.0000 C   0  0  0  0  0  0  0  0  0  0  0  0
    1.4917   -1.4750    0.0000 C   0  0  0  0  0  0  0  0  0  0  0  0
    2.2042   -0.2292    0.0000 C   0  0  0  0  0  0  0  0  0  0  0  0
   -0.6500   -1.8875    0.0000 O   0  0  0  0  0  0  0  0  0  0  0  0
   -0.6500   -1.0625    0.0000 O   0  0  0  0  0  0  0  0  0  0  0  0
    3.6375   -0.2292    0.0000 S   0  0  0  0  0  0  0  0  0  0  0  0
    1.4917   -0.6500    0.0000 C   0  0  0  0  0  0  0  0  0  0  0  0
    3.6417   -1.8875    0.0000 C   0  0  0  0  0  0  0  0  0  0  0  0
    4.3542   -0.6375    0.0000 C   0  0  0  0  0  0  0  0  0  0  0  0
   -0.6500   -2.7125    0.0000 C   0  0  0  0  0  0  0  0  0  0  0  0
   -0.6583   -0.2375    0.0000 C   0  0  0  0  0  0  0  0  0  0  0  0
  2  1  2  0
  3  1  1  0
  4  6  2  0
  5  8  2  0
  6  7  1  0
  7  3  1  0
  8 12  1  0
  9  1  1  0
 10  1  1  0
 11  5  1  0
 12  7  2  0
 13  4  1  0
 14 11  1  0
 15  9  1  0
 16 10  1  0
  5  4  1  0
M  END
>  <ID>  (1268) 


>  <MOLENAME>  (1268) 
FENTHION

>  <therap>  (1268) 
insecticide, ectoparasiticide

>  <ref>  (1268) 
J S Afr Vet Assoc 50:47 (1979); Bull Environ Contam Toxicol, 42:389 (1989)

>  <cas#>  (1268) 
55-38-9

>  <source>  (1268) 
synthetic

>  <status>  (1268) 
BAN

>  <tradename>  (1268) 
TIGUVON

>  <SMILES>  (1268) 
COP(=S)(OC)Oc1ccc(SC)c(C)c1

>  <standardized_failed>  (1268) 
False

$$$$

     RDKit          2D

  9  7  0  0  0  0  0  0  0  0999 V2000
    5.1542   -1.8042    0.0000 C   0  0  0  0  0  0  0  0  0  0  0  0
    7.2958   -2.2167    0.0000 C   0  0  0  0  0  0  0  0  0  0  0  0
    5.8667   -2.2167    0.0000 C   0  0  0  0  0  0  0  0  0  0  0  0
    6.5833   -1.8042    0.0000 C   0  0  0  0  0  0  0  0  0  0  0  0
    4.4417   -2.2167    0.0000 O   0  0  0  0  0  0  0  0  0  0  0  0
    8.0125   -1.8042    0.0000 O   0  0  0  0  0  0  0  0  0  0  0  0
    7.2958   -3.0417    0.0000 O   0  0  0  0  0  0  0  0  0  0  0  0
    5.1542   -0.9792    0.0000 O   0  0  0  0  0  0  0  0  0  0  0  0
    5.5875   -3.5250    0.0000 Fe  0  0  0  0  0 15  0  0  0  0  0  0
  2  4  1  0
  3  1  1  0
  4  3  2  0
  5  1  1  0
  6  2  1  0
  7  2  2  0
  8  1  2  0
M  CHG  3   5  -1   6  -1   9   2
M  END
>  <ID>  (1269) 


>  <MOLENAME>  (1269) 
FERROUS FUMARATE

>  <therap>  (1269) 
hematinic

>  <ref>  (1269) 
Blood 15:540 (1960); Br J Nutrit 65:271 (1991); Am J Clin Nutr 74:791 (2001)

>  <cas#>  (1269) 
141-01-5

>  <source>  (1269) 
synthetic

>  <status>  (1269) 
USP, JAN

>  <tradename>  (1269) 
FEOSTAT

>  <SMILES>  (1269) 
O=C([O-])/C=C/C(=O)[O-].[Fe+2]

>  <standardized_failed>  (1269) 
True

$$$$

     RDKit          2D

 19 20  0  0  0  0  0  0  0  0999 V2000
    5.9458   -3.2667    0.0000 C   0  0  0  0  0  0  0  0  0  0  0  0
    5.2375   -3.6833    0.0000 C   0  0  0  0  0  0  0  0  0  0  0  0
    5.2375   -4.5083    0.0000 C   0  0  0  0  0  0  0  0  0  0  0  0
    5.9417   -2.4417    0.0000 C   0  0  0  0  0  0  0  0  0  0  0  0
    6.6625   -3.6750    0.0000 C   0  0  0  0  0  0  0  0  0  0  0  0
    8.0667   -2.0250    0.0000 C   0  0  0  0  0  0  0  0  0  0  0  0
    5.9542   -4.9208    0.0000 C   0  0  0  0  0  0  0  0  0  0  0  0
    6.6667   -4.5042    0.0000 C   0  0  0  0  0  0  0  0  0  0  0  0
    8.0667   -1.2000    0.0000 O   0  0  0  0  0  0  0  0  0  0  0  0
    5.2250   -2.0333    0.0000 O   0  0  0  0  0  0  0  0  0  0  0  0
    6.6500   -2.0292    0.0000 C   0  0  0  0  0  0  0  0  0  0  0  0
    7.3625   -2.4375    0.0000 C   0  0  0  0  0  0  0  0  0  0  0  0
    8.7792   -2.4292    0.0000 O   0  0  0  0  0  0  0  0  0  0  0  0
    5.9542   -5.7458    0.0000 O   0  0  0  0  0  0  0  0  0  0  0  0
    4.5208   -3.2708    0.0000 C   0  0  0  0  0  0  0  0  0  0  0  0
    4.5208   -4.9250    0.0000 C   0  0  0  0  0  0  0  0  0  0  0  0
    5.2417   -6.1583    0.0000 C   0  0  0  0  0  0  0  0  0  0  0  0
    3.8083   -3.6875    0.0000 C   0  0  0  0  0  0  0  0  0  0  0  0
    3.8083   -4.5125    0.0000 C   0  0  0  0  0  0  0  0  0  0  0  0
  2  1  2  0
  3  2  1  0
  4  1  1  0
  5  1  1  0
  6 12  1  0
  7  3  2  0
  8  5  2  0
  9  6  2  0
 10  4  2  0
 11  4  1  0
 12 11  1  0
 13  6  1  0
 14  7  1  0
 15  2  1  0
 16  3  1  0
 17 14  1  0
 18 15  2  0
 19 18  1  0
  8  7  1  0
 16 19  2  0
M  END
>  <ID>  (1270) 


>  <MOLENAME>  (1270) 
MENBUTONE

>  <therap>  (1270) 
choleretic

>  <ref>  (1270) 
J. Am. Chem. Soc. (1951), 73, 897-900. ; J. Pharmacol. Exp. Ther. (1950), 100, 421-8. ; J. Pharmacol. Exp. Ther. (1950), 99, 465-78.

>  <cas#>  (1270) 
3562-99-0

>  <source>  (1270) 
synthetic

>  <status>  (1270) 
INN, BAN

>  <tradename>  (1270) 
GENABIL

>  <SMILES>  (1270) 
COc1c2ccccc2c(C(=O)CCC(=O)O)cc1

>  <standardized_failed>  (1270) 
False

$$$$

     RDKit          2D

 44 48  0  0  0  0  0  0  0  0999 V2000
    6.8917   -0.1667    0.0000 N   0  0  0  0  0  0  0  0  0  0  0  0
    3.5542   -3.8667    0.0000 N   0  0  0  0  0  0  0  0  0  0  0  0
    6.0792   -0.3167    0.0000 C   0  0  0  0  0  0  0  0  0  0  0  0
    6.2167   -1.1292    0.0000 C   0  0  0  0  0  0  0  0  0  0  0  0
    7.0292   -0.9792    0.0000 C   0  0  0  0  0  0  0  0  0  0  0  0
    3.1417   -3.1417    0.0000 C   0  0  0  0  0  0  0  0  0  0  0  0
    4.3792   -3.8667    0.0000 C   0  0  0  0  0  0  0  0  0  0  0  0
   10.3333    0.8583    0.0000 C   0  0  0  0  0  0  0  0  0  0  0  0
    7.5167    0.3583    0.0000 C   0  0  0  0  0  0  0  0  0  0  0  0
   10.2708    1.6708    0.0000 N   0  0  0  0  0  0  0  0  0  0  0  0
   11.1292    0.6583    0.0000 N   0  0  0  0  0  0  0  0  0  0  0  0
    2.3208   -3.1417    0.0000 C   0  0  0  0  0  0  0  0  0  0  0  0
   11.5667    1.3583    0.0000 N   0  0  0  0  0  0  0  0  0  0  0  0
   11.0417    1.9833    0.0000 N   0  0  0  0  0  0  0  0  0  0  0  0
    5.7417   -1.8042    0.0000 N   0  0  0  0  0  0  0  0  0  0  0  0
    7.8042   -1.2667    0.0000 S   0  0  0  0  0  0  0  0  0  0  0  0
    8.2917    0.0708    0.0000 C   0  0  0  0  0  0  0  0  0  0  0  0
    4.7917   -3.1542    0.0000 N   0  0  0  0  0  0  0  0  0  0  0  0
    6.0917   -2.5542    0.0000 C   0  0  0  0  0  0  0  0  0  0  0  0
    1.9042   -3.8542    0.0000 N   0  0  0  0  0  0  0  0  0  0  0  0
    5.6167   -3.2292    0.0000 C   0  0  0  0  0  0  0  0  0  0  0  0
    7.3792    1.1708    0.0000 C   0  0  0  0  0  0  0  0  0  0  0  0
    3.1375   -4.5792    0.0000 C   0  0  0  0  0  0  0  0  0  0  0  0
    9.7042    0.3208    0.0000 S   0  0  0  0  0  0  0  0  0  0  0  0
    8.4375   -0.7417    0.0000 C   0  0  0  0  0  0  0  0  0  0  0  0
    5.3917    0.1583    0.0000 O   0  0  0  0  0  0  0  0  0  0  0  0
    8.9292    0.6083    0.0000 C   0  0  0  0  0  0  0  0  0  0  0  0
    3.5625   -2.4292    0.0000 O   0  0  0  0  0  0  0  0  0  0  0  0
    4.3750   -4.6917    0.0000 O   0  0  0  0  0  0  0  0  0  0  0  0
    2.3125   -4.5667    0.0000 C   0  0  0  0  0  0  0  0  0  0  0  0
    1.9167   -2.4167    0.0000 O   0  0  0  0  0  0  0  0  0  0  0  0
    5.9667   -3.9792    0.0000 C   0  0  0  0  0  0  0  0  0  0  0  0
    6.9167   -2.6292    0.0000 O   0  0  0  0  0  0  0  0  0  0  0  0
    6.6042    1.4458    0.0000 O   0  0  0  0  0  0  0  0  0  0  0  0
    6.7792   -4.0417    0.0000 C   0  0  0  0  0  0  0  0  0  0  0  0
    5.4875   -4.6542    0.0000 C   0  0  0  0  0  0  0  0  0  0  0  0
    9.5750    2.1083    0.0000 C   0  0  0  0  0  0  0  0  0  0  0  0
    8.0042    1.6958    0.0000 O   0  0  0  0  0  0  0  0  0  0  0  0
    6.6625   -5.4792    0.0000 C   0  0  0  0  0  0  0  0  0  0  0  0
    5.8375   -5.4042    0.0000 C   0  0  0  0  0  0  0  0  0  0  0  0
    7.1292   -4.7917    0.0000 C   0  0  0  0  0  0  0  0  0  0  0  0
    1.0792   -3.8417    0.0000 C   0  0  0  0  0  0  0  0  0  0  0  0
    7.0125   -6.2167    0.0000 O   0  0  0  0  0  0  0  0  0  0  0  0
    0.6667   -3.1292    0.0000 C   0  0  0  0  0  0  0  0  0  0  0  0
  2  7  1  0
  3  1  1  0
  4  5  1  0
  5  1  1  0
  6  2  1  0
  7 18  1  0
  8 24  1  0
  9  1  1  0
 10  8  1  0
 11  8  2  0
 12  6  1  0
 13 11  1  0
 14 10  1  0
 15  4  1  0
 16  5  1  0
 17  9  2  0
 18 21  1  0
 19 15  1  0
 20 30  1  0
 21 19  1  0
 22  9  1  0
 23  2  1  0
 24 27  1  0
 25 17  1  0
 26  3  2  0
 27 17  1  0
 28  6  2  0
 29  7  2  0
 30 23  1  0
 31 12  2  0
 32 21  1  0
 33 19  2  0
 34 22  2  0
 35 32  2  0
 36 32  1  0
 37 10  1  0
 38 22  1  0
 39 40  1  0
 40 36  2  0
 41 35  1  0
 42 20  1  0
 43 39  1  0
 44 42  1  0
  3  4  1  0
 16 25  1  0
 13 14  2  0
 41 39  2  0
 12 20  1  0
M  END
>  <ID>  (1271) 


>  <MOLENAME>  (1271) 
CEFOPERAZONE

>  <therap>  (1271) 
antibacterial

>  <ref>  (1271) 
Antimicrob Agents Chemother 17:129 (1980); Drugs 22:423 (1981)

>  <cas#>  (1271) 
62893-20-3

>  <source>  (1271) 
synthetic; CP-52640-2

>  <status>  (1271) 
USP, JAN

>  <tradename>  (1271) 
CEFOBID

>  <SMILES>  (1271) 
CCN1CCN(C(=O)NC(C(=O)NC2C(=O)N3C(C(=O)O)=C(CSc4nnnn4C)CSC23)c2ccc(O)cc2)C(=O)C1=O

>  <standardized_failed>  (1271) 
False

$$$$

     RDKit          2D

 42 39  0  0  0  0  0  0  0  0999 V2000
    7.2292   -5.0542    0.0000 C   0  0  0  0  0  0  0  0  0  0  0  0
    7.2250   -7.7542    0.0000 C   0  0  0  0  0  0  0  0  0  0  0  0
    7.9875   -4.7417    0.0000 C   0  0  0  0  0  0  0  0  0  0  0  0
    7.9792   -8.0667    0.0000 C   0  0  0  0  0  0  0  0  0  0  0  0
    6.6792   -4.3917    0.0000 N   0  0  0  0  0  0  0  0  0  0  0  0
    6.6750   -8.4167    0.0000 N   0  0  0  0  0  0  0  0  0  0  0  0
    3.1417   -3.9792    0.0000 C   0  0  0  0  0  0  0  0  0  0  0  0
    3.1375   -8.8292    0.0000 C   0  0  0  0  0  0  0  0  0  0  0  0
    5.8667   -4.5292    0.0000 C   0  0  0  0  0  0  0  0  0  0  0  0
    5.8625   -8.2792    0.0000 C   0  0  0  0  0  0  0  0  0  0  0  0
    8.1792   -3.9292    0.0000 N   0  0  0  0  0  0  0  0  0  0  0  0
    8.1750   -8.8792    0.0000 N   0  0  0  0  0  0  0  0  0  0  0  0
    9.0542   -2.8792    0.0000 C   0  0  0  0  0  0  0  0  0  0  0  0
    9.0500   -9.9292    0.0000 C   0  0  0  0  0  0  0  0  0  0  0  0
    8.5292   -5.3542    0.0000 O   0  0  0  0  0  0  0  0  0  0  0  0
    8.5250   -7.4542    0.0000 O   0  0  0  0  0  0  0  0  0  0  0  0
    8.6375   -2.1667    0.0000 O   0  0  0  0  0  0  0  0  0  0  0  0
    8.6292  -10.6417    0.0000 O   0  0  0  0  0  0  0  0  0  0  0  0
    3.1375   -8.0167    0.0000 O   0  0  0  0  0  0  0  0  0  0  0  0
    3.1417   -4.7917    0.0000 O   0  0  0  0  0  0  0  0  0  0  0  0
    3.9000   -9.1042    0.0000 C   0  0  0  0  0  0  0  0  0  0  0  0
    3.9042   -3.7042    0.0000 C   0  0  0  0  0  0  0  0  0  0  0  0
    5.5792   -7.4917    0.0000 O   0  0  0  0  0  0  0  0  0  0  0  0
    5.5875   -5.3167    0.0000 O   0  0  0  0  0  0  0  0  0  0  0  0
    9.8250  -10.1542    0.0000 O   0  0  0  0  0  0  0  0  0  0  0  0
    9.8292   -2.6542    0.0000 O   0  0  0  0  0  0  0  0  0  0  0  0
    7.0250   -5.8417    0.0000 C   0  0  0  0  0  0  0  0  0  0  0  0
    7.0167   -6.9667    0.0000 C   0  0  0  0  0  0  0  0  0  0  0  0
    9.0042   -3.6917    0.0000 C   0  0  0  0  0  0  0  0  0  0  0  0
    9.0000   -9.1167    0.0000 C   0  0  0  0  0  0  0  0  0  0  0  0
    4.5792   -4.1667    0.0000 C   0  0  0  0  0  0  0  0  0  0  0  0
    4.5750   -8.6417    0.0000 C   0  0  0  0  0  0  0  0  0  0  0  0
    6.2167   -5.9167    0.0000 S   0  0  0  0  0  0  0  0  0  0  0  0
    6.2125   -6.8917    0.0000 S   0  0  0  0  0  0  0  0  0  0  0  0
    5.3500   -8.9167    0.0000 C   0  0  0  0  0  0  0  0  0  0  0  0
    5.3542   -3.8917    0.0000 C   0  0  0  0  0  0  0  0  0  0  0  0
    2.4167   -9.2292    0.0000 O   0  0  0  0  0  0  0  0  0  0  0  0
    2.4250   -3.5792    0.0000 O   0  0  0  0  0  0  0  0  0  0  0  0
    3.8750   -9.9417    0.0000 N   0  0  0  0  0  0  0  0  0  0  0  0
    3.8792   -2.8667    0.0000 N   0  0  0  0  0  0  0  0  0  0  0  0
    6.4000   -2.5542    0.0000 Na  0  0  0  0  0 15  0  0  0  0  0  0
    6.4625  -10.5167    0.0000 Na  0  0  0  0  0 15  0  0  0  0  0  0
  2 28  1  1
  3  1  1  0
  4  2  1  0
  5  1  1  0
  6  2  1  0
  7 22  1  0
  8 21  1  0
  9  5  1  0
 10  6  1  0
 11  3  1  0
 12  4  1  0
 13 29  1  0
 14 30  1  0
 15  3  2  0
 16  4  2  0
 17 13  1  0
 18 14  1  0
 19  8  2  0
 20  7  2  0
 21 32  1  0
 22 31  1  0
 23 10  2  0
 24  9  2  0
 25 14  2  0
 26 13  2  0
  1 27  1  6
 28 34  1  0
 29 11  1  0
 30 12  1  0
 31 36  1  0
 32 35  1  0
 33 27  1  0
 34 33  1  0
 35 10  1  0
 36  9  1  0
 37  8  1  0
 38  7  1  0
 21 39  1  6
 22 40  1  1
M  CHG  4  17  -1  18  -1  41   1  42   1
M  END
>  <ID>  (1272) 


>  <MOLENAME>  (1272) 
OXIGLUTATIONE DISODIUM SALT

>  <therap>  (1272) 
antioxidant

>  <ref>  (1272) 
Expert Opin. Invest. Drugs (2008), 17(7), 1075-1083; Cancer Res. (2008), 68(8), 2870-2877; Immunopharmacol. Immunotoxicol. (2002), 24(4), 627-638

>  <cas#>  (1272) 
103239-24-3; 27025-41-8(acid)

>  <source>  (1272) 
synthetic

>  <status>  (1272) 
JAN

>  <tradename>  (1272) 
nan

>  <SMILES>  (1272) 
N[C@@H](CCC(=O)N[C@@H](CSSC[C@H](NC(=O)CC[C@H](N)C(=O)O)C(=O)NCC(=O)O)C(=O)NCC(=O)O)C(=O)O

>  <standardized_failed>  (1272) 
False

$$$$

     RDKit          2D

 13 13  0  0  0  0  0  0  0  0999 V2000
    6.3917   -3.3125    0.0000 C   0  0  0  0  0  0  0  0  0  0  0  0
    6.3917   -4.5000    0.0000 C   0  0  0  0  0  0  0  0  0  0  0  0
    5.3625   -2.8417    0.0000 C   0  0  0  0  0  0  0  0  0  0  0  0
    5.4250   -4.9042    0.0000 C   0  0  0  0  0  0  0  0  0  0  0  0
    4.9542   -3.9042    0.0000 C   0  0  0  0  0  0  0  0  0  0  0  0
    4.2667   -4.5000    0.0000 C   0  0  0  0  0  0  0  0  0  0  0  0
    4.2667   -3.3750    0.0000 C   0  0  0  0  0  0  0  0  0  0  0  0
    6.3917   -2.4042    0.0000 N   0  0  0  0  0  0  0  0  0  0  0  0
    7.1875   -3.4042    0.0000 C   0  0  0  0  0  0  0  0  0  0  0  0
    6.3917   -5.2792    0.0000 C   0  0  0  0  0  0  0  0  0  0  0  0
    7.2042   -4.7167    0.0000 C   0  0  0  0  0  0  0  0  0  0  0  0
    8.6042   -2.8042    0.0000 Cl  0  0  0  0  0  0  0  0  0  0  0  0
    7.0792   -1.9042    0.0000 C   0  0  0  0  0  0  0  0  0  0  0  0
  2  1  1  0
  3  1  1  0
  4  2  1  0
  5  3  1  0
  6  7  1  0
  7  3  1  0
  8  1  1  0
  9  1  1  0
 10  2  1  0
 11  2  1  0
 13  8  1  0
  5  4  1  0
  6  4  1  0
M  END
>  <ID>  (1273) 


>  <MOLENAME>  (1273) 
MECAMYLAMINE HYDROCHLORIDE

>  <therap>  (1273) 
antihypertensive

>  <ref>  (1273) 
Expert Opin. Pharmacother. (2009), 10(16), 2709-2721; Drugs (2008), 68(8), 1067-1088; Br. J. Pharmacol. Chemother. (1963), 21, 39-44

>  <cas#>  (1273) 
826-39-1, 60-40-2 [mecamylamine]

>  <source>  (1273) 
synthetic

>  <status>  (1273) 
USP, INN, BAN

>  <tradename>  (1273) 
INVERSINE

>  <SMILES>  (1273) 
CNC1(C)C2CCC(C2)C1(C)C

>  <standardized_failed>  (1273) 
False

$$$$

     RDKit          2D

 57 60  0  0  0  0  0  0  0  0999 V2000
    4.7542   -0.8375    0.0000 C   0  0  0  0  0  0  0  0  0  0  0  0
    7.5792   -2.0292    0.0000 C   0  0  0  0  0  0  0  0  0  0  0  0
    7.1792   -2.7417    0.0000 C   0  0  0  0  0  0  0  0  0  0  0  0
    4.7417   -3.8667    0.0000 C   0  0  0  0  0  0  0  0  0  0  0  0
    3.4500   -3.8667    0.0000 C   0  0  0  0  0  0  0  0  0  0  0  0
    3.1667   -1.6167    0.0000 C   0  0  0  0  0  0  0  0  0  0  0  0
    4.0917   -0.4875    0.0000 C   0  0  0  0  0  0  0  0  0  0  0  0
    4.0792   -4.2417    0.0000 C   0  0  0  0  0  0  0  0  0  0  0  0
    5.1292   -0.1875    0.0000 O   0  0  0  0  0  0  0  0  0  0  0  0
    3.4500   -0.8625    0.0000 C   0  0  0  0  0  0  0  0  0  0  0  0
    4.7417   -3.1167    0.0000 C   0  0  0  0  0  0  0  0  0  0  0  0
    5.3917   -2.7417    0.0000 C   0  0  0  0  0  0  0  0  0  0  0  0
    3.4500   -3.1167    0.0000 O   0  0  0  0  0  0  0  0  0  0  0  0
    8.4042   -2.0250    0.0000 C   0  0  0  0  0  0  0  0  0  0  0  0
    6.3417   -2.7542    0.0000 O   0  0  0  0  0  0  0  0  0  0  0  0
    7.5250   -5.5667    0.0000 C   0  0  0  0  0  0  0  0  0  0  0  0
    2.5167   -1.9917    0.0000 C   0  0  0  0  0  0  0  0  0  0  0  0
    6.0917   -4.7417    0.0000 C   0  0  0  0  0  0  0  0  0  0  0  0
    5.5042   -0.8375    0.0000 C   0  0  0  0  0  0  0  0  0  0  0  0
    7.5917   -3.4542    0.0000 O   0  0  0  0  0  0  0  0  0  0  0  0
    6.8042   -4.3292    0.0000 O   0  0  0  0  0  0  0  0  0  0  0  0
    6.0917   -5.5667    0.0000 C   0  0  0  0  0  0  0  0  0  0  0  0
    2.5042   -2.7875    0.0000 C   0  0  0  0  0  0  0  0  0  0  0  0
    4.7500   -1.6167    0.0000 C   0  0  0  0  0  0  0  0  0  0  0  0
    6.8042   -5.9792    0.0000 C   0  0  0  0  0  0  0  0  0  0  0  0
    7.5250   -4.7417    0.0000 C   0  0  0  0  0  0  0  0  0  0  0  0
    5.3750   -4.3292    0.0000 O   0  0  0  0  0  0  0  0  0  0  0  0
    5.3917   -1.9917    0.0000 C   0  0  0  0  0  0  0  0  0  0  0  0
    7.1667   -1.3167    0.0000 O   0  0  0  0  0  0  0  0  0  0  0  0
    3.6000   -2.1625    0.0000 O   0  0  0  0  0  0  0  0  0  0  0  0
    8.2417   -5.9917    0.0000 O   0  0  0  0  0  0  0  0  0  0  0  0
    8.8292   -2.7375    0.0000 C   0  0  0  0  0  0  0  0  0  0  0  0
    7.2875   -0.3917    0.0000 C   0  0  0  0  0  0  0  0  0  0  0  0
    4.1917   -1.8167    0.0000 C   0  0  0  0  0  0  0  0  0  0  0  0
    8.2417   -6.8167    0.0000 C   0  0  0  0  0  0  0  0  0  0  0  0
    8.8167   -1.3042    0.0000 N   0  0  0  0  0  0  0  0  0  0  0  0
    2.8000   -4.2417    0.0000 O   0  0  0  0  0  0  0  0  0  0  0  0
    8.4167   -3.4500    0.0000 C   0  0  0  0  0  0  0  0  0  0  0  0
    4.1167    0.1875    0.0000 O   0  0  0  0  0  0  0  0  0  0  0  0
    4.1917   -1.1292    0.0000 O   0  0  0  0  0  0  0  0  0  0  0  0
    6.7792    0.0250    0.0000 O   0  0  0  0  0  0  0  0  0  0  0  0
    7.5250   -7.2250    0.0000 O   0  0  0  0  0  0  0  0  0  0  0  0
    6.8042   -6.8042    0.0000 O   0  0  0  0  0  0  0  0  0  0  0  0
    4.0792   -4.9625    0.0000 C   0  0  0  0  0  0  0  0  0  0  0  0
    2.7917   -0.4875    0.0000 C   0  0  0  0  0  0  0  0  0  0  0  0
    4.0917   -2.7417    0.0000 C   0  0  0  0  0  0  0  0  0  0  0  0
    1.8500   -1.5667    0.0000 C   0  0  0  0  0  0  0  0  0  0  0  0
    1.8167   -3.2250    0.0000 C   0  0  0  0  0  0  0  0  0  0  0  0
    8.2417   -4.3292    0.0000 C   0  0  0  0  0  0  0  0  0  0  0  0
    6.0625   -1.6917    0.0000 C   0  0  0  0  0  0  0  0  0  0  0  0
    4.7917   -2.1542    0.0000 C   0  0  0  0  0  0  0  0  0  0  0  0
    8.9542   -7.2292    0.0000 C   0  0  0  0  0  0  0  0  0  0  0  0
    8.1250   -0.2667    0.0000 C   0  0  0  0  0  0  0  0  0  0  0  0
    8.4042   -0.5917    0.0000 C   0  0  0  0  0  0  0  0  0  0  0  0
    9.6500   -1.3042    0.0000 C   0  0  0  0  0  0  0  0  0  0  0  0
    8.8375   -4.1625    0.0000 C   0  0  0  0  0  0  0  0  0  0  0  0
    6.0917   -7.2167    0.0000 C   0  0  0  0  0  0  0  0  0  0  0  0
  2  3  1  0
  3 15  1  0
  4 11  1  0
  5  8  1  0
  6 10  1  0
  7  1  1  0
  8  4  1  0
  1  9  1  0
 10  7  1  0
 11 12  1  0
 12 28  1  0
 13 23  1  0
 14  2  1  0
 12 15  1  6
 16 25  1  0
 17  6  1  0
 18 27  1  6
  1 19  1  1
 20  3  1  0
 21 18  1  0
 22 18  1  0
 23 17  1  0
 24  1  1  0
 25 22  1  0
 26 21  1  0
  4 27  1  6
 28 24  1  0
  2 29  1  6
  6 30  1  1
 16 31  1  6
 32 38  1  0
 33 29  1  0
 34 30  1  0
 35 31  1  0
 14 36  1  1
 37  5  2  0
 38 20  1  0
 39  7  2  0
 40 34  2  0
 41 33  2  0
 42 35  2  0
 25 43  1  1
  8 44  1  1
 10 45  1  1
 11 46  1  6
 17 47  1  6
 23 48  1  6
 26 49  1  1
 28 50  1  6
 51 34  1  0
 52 35  1  0
 53 33  1  0
 54 36  1  0
 55 36  1  0
 38 56  1  1
 57 43  1  0
 19  9  1  0
  5 13  1  0
 14 32  1  0
 16 26  1  0
M  END
>  <ID>  (1274) 


>  <MOLENAME>  (1274) 
TROLEANDOMYCIN

>  <therap>  (1274) 
antibacterial

>  <ref>  (1274) 
Farmatsiya (Sofia) 27:1 (1977) [CA 90:23458c (1979)]

>  <cas#>  (1274) 
2751-09-9

>  <source>  (1274) 
semisynthetic; NSC-108166

>  <status>  (1274) 
USP, INN, BAN, JAN

>  <tradename>  (1274) 
EVRAMYCIN

>  <SMILES>  (1274) 
CO[C@H]1C[C@H](O[C@@H]2[C@@H](C)C(=O)O[C@H](C)[C@H](C)[C@H](OC(C)=O)[C@@H](C)C(=O)[C@@]3(CO3)C[C@H](C)[C@H](OC3O[C@H](C)C[C@H](N(C)C)[C@H]3OC(C)=O)[C@H]2C)O[C@@H](C)[C@@H]1OC(C)=O

>  <standardized_failed>  (1274) 
False

$$$$

     RDKit          2D

 16 15  0  0  0  0  0  0  0  0999 V2000
    6.1875   -5.8167    0.0000 C   0  0  0  0  0  0  0  0  0  0  0  0
    5.4750   -5.4042    0.0000 N   0  0  0  0  0  0  0  0  0  0  0  0
    6.9000   -5.4042    0.0000 N   0  0  0  0  0  0  0  0  0  0  0  0
    4.0500   -5.4042    0.0000 C   0  0  0  0  0  0  0  0  0  0  0  0
    8.3250   -5.4042    0.0000 C   0  0  0  0  0  0  0  0  0  0  0  0
    7.6125   -5.8167    0.0000 C   0  0  0  0  0  0  0  0  0  0  0  0
    4.7625   -5.8167    0.0000 C   0  0  0  0  0  0  0  0  0  0  0  0
    6.1875   -6.6417    0.0000 O   0  0  0  0  0  0  0  0  0  0  0  0
    9.0375   -5.8167    0.0000 Cl  0  0  0  0  0  0  0  0  0  0  0  0
    4.0500   -4.5792    0.0000 Cl  0  0  0  0  0  0  0  0  0  0  0  0
    3.3292   -4.9917    0.0000 Cl  0  0  0  0  0  0  0  0  0  0  0  0
    3.3375   -5.8167    0.0000 Cl  0  0  0  0  0  0  0  0  0  0  0  0
    8.3250   -4.5792    0.0000 Cl  0  0  0  0  0  0  0  0  0  0  0  0
    9.0375   -4.9875    0.0000 Cl  0  0  0  0  0  0  0  0  0  0  0  0
    4.7625   -6.6417    0.0000 O   0  0  0  0  0  0  0  0  0  0  0  0
    7.6125   -6.6417    0.0000 O   0  0  0  0  0  0  0  0  0  0  0  0
  2  1  1  0
  3  1  1  0
  4  7  1  0
  5  6  1  0
  6  3  1  0
  7  2  1  0
  8  1  2  0
  9  5  1  0
 10  4  1  0
 11  4  1  0
 12  4  1  0
 13  5  1  0
 14  5  1  0
 15  7  1  0
 16  6  1  0
M  END
>  <ID>  (1275) 


>  <MOLENAME>  (1275) 
DICLORALUREA

>  <therap>  (1275) 
antibacterial

>  <ref>  (1275) 
Proc. Am. Soc. Hortic. Sci. (1956), 67, 312-23; Proc. R. Soc. London, Ser. A (1931), 134, 372-84; Pharmazie (1983), 38(11), 755-8

>  <cas#>  (1275) 
116-52-9

>  <source>  (1275) 
synthetic; SK&F-1995

>  <status>  (1275) 
USAN, INN

>  <tradename>  (1275) 
nan

>  <SMILES>  (1275) 
O=C(NC(O)C(Cl)(Cl)Cl)NC(O)C(Cl)(Cl)Cl

>  <standardized_failed>  (1275) 
False

$$$$

     RDKit          2D

 32 34  0  0  0  0  0  0  0  0999 V2000
    5.8292   -6.3542    0.0000 C   0  0  0  0  0  0  0  0  0  0  0  0
    5.4667   -5.5875    0.0000 C   0  0  0  0  0  0  0  0  0  0  0  0
    4.6542   -7.2417    0.0000 S   0  0  0  0  0  0  0  0  0  0  0  0
    5.4500   -7.1042    0.0000 C   0  0  0  0  0  0  0  0  0  0  0  0
    5.9750   -4.9292    0.0000 N   0  0  0  0  0  0  0  0  0  0  0  0
    4.6750   -5.4375    0.0000 C   0  0  0  0  0  0  0  0  0  0  0  0
    4.1667   -6.7542    0.0000 C   0  0  0  0  0  0  0  0  0  0  0  0
    4.1625   -5.9292    0.0000 C   0  0  0  0  0  0  0  0  0  0  0  0
    6.9875   -3.6292    0.0000 N   0  0  0  0  0  0  0  0  0  0  0  0
    9.5542   -4.3917    0.0000 C   0  0  0  0  0  0  0  0  0  0  0  0
    9.5500   -5.6417    0.0000 C   0  0  0  0  0  0  0  0  0  0  0  0
    9.0167   -4.7042    0.0000 C   0  0  0  0  0  0  0  0  0  0  0  0
    9.0125   -5.3292    0.0000 C   0  0  0  0  0  0  0  0  0  0  0  0
    6.6625   -6.3125    0.0000 C   0  0  0  0  0  0  0  0  0  0  0  0
    6.7917   -5.0417    0.0000 C   0  0  0  0  0  0  0  0  0  0  0  0
    5.6542   -4.1667    0.0000 C   0  0  0  0  0  0  0  0  0  0  0  0
    5.9042   -7.8042    0.0000 C   0  0  0  0  0  0  0  0  0  0  0  0
    9.5625   -3.7625    0.0000 O   0  0  0  0  0  0  0  0  0  0  0  0
    9.5417   -6.2750    0.0000 O   0  0  0  0  0  0  0  0  0  0  0  0
    6.1667   -3.5167    0.0000 C   0  0  0  0  0  0  0  0  0  0  0  0
    7.2917   -4.4000    0.0000 C   0  0  0  0  0  0  0  0  0  0  0  0
    7.1167   -7.0042    0.0000 C   0  0  0  0  0  0  0  0  0  0  0  0
    7.9417   -6.9625    0.0000 S   0  0  0  0  0  0  0  0  0  0  0  0
   10.0917   -4.7042    0.0000 O   0  0  0  0  0  0  0  0  0  0  0  0
   10.0917   -5.3375    0.0000 O   0  0  0  0  0  0  0  0  0  0  0  0
    6.7417   -7.7542    0.0000 C   0  0  0  0  0  0  0  0  0  0  0  0
    7.4917   -2.9792    0.0000 C   0  0  0  0  0  0  0  0  0  0  0  0
    3.4500   -7.1750    0.0000 C   0  0  0  0  0  0  0  0  0  0  0  0
    3.4500   -5.5167    0.0000 C   0  0  0  0  0  0  0  0  0  0  0  0
    8.3917   -7.6500    0.0000 C   0  0  0  0  0  0  0  0  0  0  0  0
    2.7375   -6.7625    0.0000 C   0  0  0  0  0  0  0  0  0  0  0  0
    2.7375   -5.9375    0.0000 C   0  0  0  0  0  0  0  0  0  0  0  0
  2  1  1  0
  3  4  1  0
  4  1  2  0
  5  2  1  0
  6  2  1  0
  7  3  1  0
  8  6  1  0
  9 20  1  0
 11 13  1  0
 12 10  1  0
 13 12  2  0
 14  1  1  0
 15  5  1  0
 16  5  1  0
 17  4  1  0
 18 10  2  0
 19 11  2  0
 20 16  1  0
 21 15  1  0
 22 14  2  0
 23 22  1  0
 24 10  1  0
 25 11  1  0
 26 17  2  0
 27  9  1  0
 28  7  2  0
 29  8  2  0
 30 23  1  0
 31 28  1  0
 32 29  1  0
 22 26  1  0
  8  7  1  0
 21  9  1  0
 31 32  2  0
M  END
>  <ID>  (1276) 


>  <MOLENAME>  (1276) 
METITEPINE MALEATE

>  <therap>  (1276) 
5HT1&2 receptor antagonist

>  <ref>  (1276) 
Naunyn Schmiedebergs Arch Pharmacol 274:192 (1972); Pharmacol Biochem Behav 23:43 (1985)

>  <cas#>  (1276) 
20229-30-5

>  <source>  (1276) 
synthetic

>  <status>  (1276) 
INN

>  <tradename>  (1276) 
nan

>  <SMILES>  (1276) 
CSc1cc2c(cc1)Sc1ccccc1CC2N1CCN(C)CC1

>  <standardized_failed>  (1276) 
False

$$$$

     RDKit          2D

 26 30  0  0  0  0  0  0  0  0999 V2000
    4.6875   -5.6917    0.0000 C   0  0  0  0  0  0  0  0  0  0  0  0
    4.6792   -6.5167    0.0000 C   0  0  0  0  0  0  0  0  0  0  0  0
    3.9750   -5.2750    0.0000 C   0  0  0  0  0  0  0  0  0  0  0  0
    3.2667   -5.6917    0.0000 C   0  0  0  0  0  0  0  0  0  0  0  0
    6.8375   -4.4667    0.0000 C   0  0  0  0  0  0  0  0  0  0  0  0
    5.4000   -5.2792    0.0000 C   0  0  0  0  0  0  0  0  0  0  0  0
    6.1042   -5.7000    0.0000 C   0  0  0  0  0  0  0  0  0  0  0  0
    3.2542   -4.8667    0.0000 C   0  0  0  0  0  0  0  0  0  0  0  0
    5.3917   -6.9292    0.0000 C   0  0  0  0  0  0  0  0  0  0  0  0
    3.9750   -6.9250    0.0000 C   0  0  0  0  0  0  0  0  0  0  0  0
    7.6167   -4.2250    0.0000 C   0  0  0  0  0  0  0  0  0  0  0  0
    6.1125   -6.5167    0.0000 C   0  0  0  0  0  0  0  0  0  0  0  0
    6.8292   -5.2917    0.0000 C   0  0  0  0  0  0  0  0  0  0  0  0
    3.2667   -6.5167    0.0000 C   0  0  0  0  0  0  0  0  0  0  0  0
    6.1292   -4.0500    0.0000 C   0  0  0  0  0  0  0  0  0  0  0  0
    5.4042   -4.4542    0.0000 C   0  0  0  0  0  0  0  0  0  0  0  0
    8.0917   -4.8917    0.0000 C   0  0  0  0  0  0  0  0  0  0  0  0
    7.6042   -5.5542    0.0000 C   0  0  0  0  0  0  0  0  0  0  0  0
    7.8292   -3.4250    0.0000 C   0  0  0  0  0  0  0  0  0  0  0  0
    2.5500   -6.9292    0.0000 O   0  0  0  0  0  0  0  0  0  0  0  0
    7.2417   -2.8417    0.0000 O   0  0  0  0  0  0  0  0  0  0  0  0
    5.3875   -7.7542    0.0000 Cl  0  0  0  0  0  0  0  0  0  0  0  0
    8.4417   -4.2250    0.0000 O   0  0  0  0  0  0  0  0  0  0  0  0
    4.6792   -4.8667    0.0000 C   0  0  0  0  0  0  0  0  0  0  0  0
    6.8292   -3.6417    0.0000 C   0  0  0  0  0  0  0  0  0  0  0  0
    8.6250   -3.2042    0.0000 C   0  0  0  0  0  0  0  0  0  0  0  0
  2  1  1  0
  3  1  1  0
  4  3  1  0
  5 15  1  0
  6  1  1  0
  7  6  1  0
  8  3  1  0
  9  2  1  0
 10  2  2  0
 11  5  1  0
 12  7  1  0
 13  7  1  0
 14  4  1  0
 15 16  1  0
 16  6  1  0
 17 18  1  0
 18 13  1  0
 11 19  1  0
 20 14  2  0
 21 19  2  0
 22  9  1  0
 11 23  1  6
  1 24  1  1
  5 25  1  1
 26 19  1  0
  4  8  1  6
  5 13  1  0
  9 12  2  0
 10 14  1  0
 17 11  1  0
M  END
>  <ID>  (1277) 


>  <MOLENAME>  (1277) 
CYPROTERONE

>  <therap>  (1277) 
antiandrogen

>  <ref>  (1277) 
Clin. Exp. Dermatol. (1979), 4(4), 501-7; Prog. Clin. Biol. Res. (1988), 260, 63-75; J. Steroid Biochem. (1987), 28(4), 379-84

>  <cas#>  (1277) 
2098-66-0

>  <source>  (1277) 
synthetic; SH-881

>  <status>  (1277) 
INN, BAN, JAN

>  <tradename>  (1277) 
nan

>  <SMILES>  (1277) 
CC(=O)[C@@]1(O)CCC2C3C=C(Cl)C4=CC(=O)[C@@H]5CC5[C@]4(C)C3CC[C@@]21C

>  <standardized_failed>  (1277) 
False

$$$$

     RDKit          2D

 20 21  0  0  0  0  0  0  0  0999 V2000
    4.4500   -1.9250    0.0000 C   0  0  0  0  0  0  0  0  0  0  0  0
    5.1625   -1.5042    0.0000 N   0  0  0  0  0  0  0  0  0  0  0  0
    3.7292   -1.5125    0.0000 C   0  0  0  0  0  0  0  0  0  0  0  0
    5.8792   -1.9167    0.0000 C   0  0  0  0  0  0  0  0  0  0  0  0
    3.7292   -0.6792    0.0000 C   0  0  0  0  0  0  0  0  0  0  0  0
    4.4417   -0.2667    0.0000 C   0  0  0  0  0  0  0  0  0  0  0  0
    4.4500   -2.7500    0.0000 O   0  0  0  0  0  0  0  0  0  0  0  0
    5.8750   -2.7417    0.0000 C   0  0  0  0  0  0  0  0  0  0  0  0
    6.5875   -1.5042    0.0000 C   0  0  0  0  0  0  0  0  0  0  0  0
    4.4417    0.5583    0.0000 O   0  0  0  0  0  0  0  0  0  0  0  0
    5.1625   -0.6750    0.0000 O   0  0  0  0  0  0  0  0  0  0  0  0
    3.0167   -1.9250    0.0000 C   0  0  0  0  0  0  0  0  0  0  0  0
    3.0167   -0.2667    0.0000 C   0  0  0  0  0  0  0  0  0  0  0  0
    7.3042   -2.7417    0.0000 C   0  0  0  0  0  0  0  0  0  0  0  0
    7.3000   -1.9125    0.0000 C   0  0  0  0  0  0  0  0  0  0  0  0
    6.5917   -3.1542    0.0000 C   0  0  0  0  0  0  0  0  0  0  0  0
    6.5792   -0.6792    0.0000 C   0  0  0  0  0  0  0  0  0  0  0  0
    5.1625   -3.1542    0.0000 C   0  0  0  0  0  0  0  0  0  0  0  0
    2.3042   -0.6875    0.0000 C   0  0  0  0  0  0  0  0  0  0  0  0
    2.3042   -1.5125    0.0000 C   0  0  0  0  0  0  0  0  0  0  0  0
  2  1  1  0
  3  1  1  0
  4  2  1  0
  5  3  2  0
  6  5  1  0
  7  1  2  0
  8  4  2  0
  9  4  1  0
 10  6  2  0
 11  6  1  0
 12  3  1  0
 13  5  1  0
 14 15  1  0
 15  9  2  0
 16  8  1  0
 17  9  1  0
 18  8  1  0
 19 20  1  0
 20 12  2  0
 13 19  2  0
 16 14  2  0
M  END
>  <ID>  (1278) 


>  <MOLENAME>  (1278) 
FTAXILIDE

>  <therap>  (1278) 
antiulcer

>  <ref>  (1278) 
US patent US 3793458; Phytochemistry (Elsevier) (1981), 20(11), 2465-9; Compt. Rend. (1960), 251, 1790-2

>  <cas#>  (1278) 
19368-18-4

>  <source>  (1278) 
synthetic; MP-12

>  <status>  (1278) 
INN

>  <tradename>  (1278) 
nan

>  <SMILES>  (1278) 
Cc1cccc(C)c1NC(=O)c1c(C(=O)O)cccc1

>  <standardized_failed>  (1278) 
False

$$$$

     RDKit          2D

 17 17  0  0  0  0  0  0  0  0999 V2000
    2.0167   -1.7625    0.0000 C   0  0  0  0  0  0  0  0  0  0  0  0
    2.7292   -2.1792    0.0000 C   0  0  0  0  0  0  0  0  0  0  0  0
    2.0250   -0.9375    0.0000 C   0  0  0  0  0  0  0  0  0  0  0  0
    2.7292   -3.0042    0.0000 C   0  0  0  0  0  0  0  0  0  0  0  0
    3.4417   -1.7667    0.0000 O   0  0  0  0  0  0  0  0  0  0  0  0
    3.4417   -3.4167    0.0000 O   0  0  0  0  0  0  0  0  0  0  0  0
    4.1542   -2.1792    0.0000 C   0  0  0  0  0  0  0  0  0  0  0  0
    3.4375   -4.2417    0.0000 C   0  0  0  0  0  0  0  0  0  0  0  0
    1.3125   -0.5167    0.0000 O   0  0  0  0  0  0  0  0  0  0  0  0
    4.1542   -3.0042    0.0000 O   0  0  0  0  0  0  0  0  0  0  0  0
    4.1500   -4.6542    0.0000 O   0  0  0  0  0  0  0  0  0  0  0  0
    2.7417   -0.5292    0.0000 O   0  0  0  0  0  0  0  0  0  0  0  0
    1.3000   -2.1667    0.0000 C   0  0  0  0  0  0  0  0  0  0  0  0
    2.0167   -3.4125    0.0000 C   0  0  0  0  0  0  0  0  0  0  0  0
    1.3042   -3.0042    0.0000 C   0  0  0  0  0  0  0  0  0  0  0  0
    4.8750   -1.7667    0.0000 C   0  0  0  0  0  0  0  0  0  0  0  0
    2.7167   -4.6500    0.0000 C   0  0  0  0  0  0  0  0  0  0  0  0
  2  1  2  0
  3  1  1  0
  4  2  1  0
  5  2  1  0
  6  4  1  0
  7  5  1  0
  8  6  1  0
  9  3  2  0
 10  7  2  0
 11  8  2  0
 12  3  1  0
 13  1  1  0
 14 15  1  0
 15 13  2  0
 16  7  1  0
 17  8  1  0
  4 14  2  0
M  END
>  <ID>  (1279) 


>  <MOLENAME>  (1279) 
DIPYROCETYL

>  <therap>  (1279) 
antirheumatic, analgesic

>  <ref>  (1279) 
Bul Chem Soc Japan 16: 284 (1941); J Pharm Pharmacol 28:599 (1976) 

>  <cas#>  (1279) 
486-79-3

>  <source>  (1279) 
synthetic

>  <status>  (1279) 
INN

>  <tradename>  (1279) 
nan

>  <SMILES>  (1279) 
CC(=O)Oc1cccc(C(=O)O)c1OC(C)=O

>  <standardized_failed>  (1279) 
False

$$$$

     RDKit          2D

 27 29  0  0  0  0  0  0  0  0999 V2000
    5.4792   -2.4875    0.0000 N   0  0  0  0  0  0  0  0  0  0  0  0
    6.2792   -2.3542    0.0000 C   0  0  0  0  0  0  0  0  0  0  0  0
    6.6667   -1.5917    0.0000 C   0  0  0  0  0  0  0  0  0  0  0  0
    6.3000   -0.8167    0.0000 C   0  0  0  0  0  0  0  0  0  0  0  0
    5.2292   -3.2750    0.0000 C   0  0  0  0  0  0  0  0  0  0  0  0
    5.5000   -0.6667    0.0000 N   0  0  0  0  0  0  0  0  0  0  0  0
    7.5000   -1.7292    0.0000 C   0  0  0  0  0  0  0  0  0  0  0  0
    4.9875   -2.0000    0.0000 C   0  0  0  0  0  0  0  0  0  0  0  0
    7.6292   -2.5625    0.0000 S   0  0  0  0  0  0  0  0  0  0  0  0
    6.8792   -2.9500    0.0000 C   0  0  0  0  0  0  0  0  0  0  0  0
    4.9792   -1.1667    0.0000 C   0  0  0  0  0  0  0  0  0  0  0  0
    5.5417   -4.6667    0.0000 N   0  0  0  0  0  0  0  0  0  0  0  0
    5.7917   -3.8792    0.0000 C   0  0  0  0  0  0  0  0  0  0  0  0
    5.0417   -6.2417    0.0000 N   0  0  0  0  0  0  0  0  0  0  0  0
    4.4292   -3.4542    0.0000 O   0  0  0  0  0  0  0  0  0  0  0  0
    6.8042   -0.1667    0.0000 O   0  0  0  0  0  0  0  0  0  0  0  0
    6.1000   -5.2750    0.0000 C   0  0  0  0  0  0  0  0  0  0  0  0
    4.7375   -4.8417    0.0000 C   0  0  0  0  0  0  0  0  0  0  0  0
    4.4875   -5.6292    0.0000 C   0  0  0  0  0  0  0  0  0  0  0  0
    5.8500   -6.0625    0.0000 C   0  0  0  0  0  0  0  0  0  0  0  0
    7.4500   -4.7417    0.0000 Cl  0  0  0  0  0  0  0  0  0  0  0  0
    4.2667   -2.4125    0.0000 C   0  0  0  0  0  0  0  0  0  0  0  0
    6.7542   -3.7625    0.0000 C   0  0  0  0  0  0  0  0  0  0  0  0
    4.2667   -0.7542    0.0000 C   0  0  0  0  0  0  0  0  0  0  0  0
    4.7917   -7.0250    0.0000 C   0  0  0  0  0  0  0  0  0  0  0  0
    3.5542   -2.0000    0.0000 C   0  0  0  0  0  0  0  0  0  0  0  0
    3.5542   -1.1750    0.0000 C   0  0  0  0  0  0  0  0  0  0  0  0
  2  1  1  0
  3  2  1  0
  4  3  1  0
  5  1  1  0
  6 11  1  0
  7  3  2  0
  8  1  1  0
  9 10  1  0
 10  2  2  0
 11  8  2  0
 12 13  1  0
 13  5  1  0
 14 19  1  0
 15  5  2  0
 16  4  2  0
 17 12  1  0
 18 12  1  0
 19 18  1  0
 20 17  1  0
 22  8  1  0
 23 10  1  0
 24 11  1  0
 25 14  1  0
 26 22  2  0
 27 26  1  0
  6  4  1  0
  7  9  1  0
 27 24  2  0
 14 20  1  0
M  END
>  <ID>  (1280) 


>  <MOLENAME>  (1280) 
TELENZEPINE HYDROCHLORIDE

>  <therap>  (1280) 
antiulcer, M1 muscarinic antagonist

>  <ref>  (1280) 
Gen Pharmacol 21: 17 (1990)

>  <cas#>  (1280) 
80880-90-6

>  <source>  (1280) 
synthetic

>  <status>  (1280) 
INN

>  <tradename>  (1280) 
nan

>  <SMILES>  (1280) 
Cc1c2c(cs1)C(=O)Nc1c(cccc1)N2C(=O)CN1CCN(C)CC1

>  <standardized_failed>  (1280) 
False

$$$$

     RDKit          2D

 36 37  0  0  0  0  0  0  0  0999 V2000
    4.9250   -1.6792    0.0000 C   0  0  0  0  0  0  0  0  0  0  0  0
   10.6667   -1.5917    0.0000 S   0  0  0  0  0  0  0  0  0  0  0  0
    6.3542   -1.7000    0.0000 C   0  0  0  0  0  0  0  0  0  0  0  0
    7.0792   -0.4667    0.0000 C   0  0  0  0  0  0  0  0  0  0  0  0
    4.2042   -2.0875    0.0000 C   0  0  0  0  0  0  0  0  0  0  0  0
    6.3625   -0.8750    0.0000 C   0  0  0  0  0  0  0  0  0  0  0  0
    3.4917   -1.6750    0.0000 C   0  0  0  0  0  0  0  0  0  0  0  0
    4.9292   -0.8542    0.0000 O   0  0  0  0  0  0  0  0  0  0  0  0
    5.6375   -2.1042    0.0000 O   0  0  0  0  0  0  0  0  0  0  0  0
    3.5000   -0.8542    0.0000 C   0  0  0  0  0  0  0  0  0  0  0  0
    7.0750    0.3583    0.0000 O   0  0  0  0  0  0  0  0  0  0  0  0
    7.7917    0.7708    0.0000 C   0  0  0  0  0  0  0  0  0  0  0  0
    4.2250   -0.4375    0.0000 C   0  0  0  0  0  0  0  0  0  0  0  0
    7.0625   -2.1167    0.0000 C   0  0  0  0  0  0  0  0  0  0  0  0
    7.7917   -0.8917    0.0000 C   0  0  0  0  0  0  0  0  0  0  0  0
    8.5042    0.3583    0.0000 O   0  0  0  0  0  0  0  0  0  0  0  0
    7.7792   -1.7125    0.0000 C   0  0  0  0  0  0  0  0  0  0  0  0
   11.3750   -1.5667    0.0000 O   0  0  0  0  0  0  0  0  0  0  0  0
   10.0167   -1.5917    0.0000 O   0  0  0  0  0  0  0  0  0  0  0  0
    7.7917    1.5958    0.0000 C   0  0  0  0  0  0  0  0  0  0  0  0
   10.6667   -0.9000    0.0000 O   0  0  0  0  0  0  0  0  0  0  0  0
   10.6667   -2.2792    0.0000 O   0  0  0  0  0  0  0  0  0  0  0  0
    2.7750   -2.0792    0.0000 N   0  0  0  0  0  0  0  0  0  0  0  0
    4.2000   -2.9125    0.0000 O   0  0  0  0  0  0  0  0  0  0  0  0
    5.6500   -0.4417    0.0000 O   0  0  0  0  0  0  0  0  0  0  0  0
    8.5042    2.0083    0.0000 C   0  0  0  0  0  0  0  0  0  0  0  0
    7.0542   -2.9417    0.0000 N   0  0  0  0  0  0  0  0  0  0  0  0
    8.5167   -0.4917    0.0000 N   0  0  0  0  0  0  0  0  0  0  0  0
    2.7750   -0.4375    0.0000 O   0  0  0  0  0  0  0  0  0  0  0  0
    9.2250    0.7708    0.0000 C   0  0  0  0  0  0  0  0  0  0  0  0
    7.0750    2.0208    0.0000 N   0  0  0  0  0  0  0  0  0  0  0  0
    9.2250    1.5958    0.0000 C   0  0  0  0  0  0  0  0  0  0  0  0
    4.2417    0.3875    0.0000 C   0  0  0  0  0  0  0  0  0  0  0  0
   10.6542    0.7750    0.0000 N   0  0  0  0  0  0  0  0  0  0  0  0
    3.5417    0.8208    0.0000 O   0  0  0  0  0  0  0  0  0  0  0  0
    9.9417    0.3583    0.0000 C   0  0  0  0  0  0  0  0  0  0  0  0
  3  9  1  6
  4  6  1  0
  5  1  1  0
  6  3  1  0
  7  5  1  0
  8  1  1  0
  1  9  1  6
 10  7  1  0
  4 11  1  6
 12 11  1  6
 13  8  1  0
 14  3  1  0
 15 17  1  0
 16 12  1  0
 17 14  1  0
 18  2  2  0
 19  2  2  0
 20 12  1  0
 21  2  1  0
 22  2  1  0
  7 23  1  1
  5 24  1  6
  6 25  1  1
 26 20  1  0
 14 27  1  1
 15 28  1  1
 10 29  1  6
 30 16  1  0
 20 31  1  6
 32 26  1  0
 13 33  1  1
 34 36  1  0
 35 33  1  0
 30 36  1  1
 13 10  1  0
 15  4  1  0
 30 32  1  0
M  END
>  <ID>  (1281) 


>  <MOLENAME>  (1281) 
DIBEKACIN

>  <therap>  (1281) 
antibacterial

>  <ref>  (1281) 
Antimicrob Agents Chemother 13:536 (1978); J Antimicrob Chemother 6:113 (1980); J Pharmacol Exp Therap 226:226 (1983)

>  <cas#>  (1281) 
34493-98-6

>  <source>  (1281) 
semisynthetic

>  <status>  (1281) 
INN, BAN

>  <tradename>  (1281) 
nan

>  <SMILES>  (1281) 
NC[C@@H]1CC[C@@H](N)[C@@H](O[C@@H]2[C@@H](N)C[C@@H](N)[C@H](O[C@H]3O[C@H](CO)[C@@H](O)[C@H](N)[C@H]3O)[C@H]2O)O1

>  <standardized_failed>  (1281) 
False

$$$$

     RDKit          2D

 24 25  0  0  0  0  0  0  0  0999 V2000
    3.6250   -2.1667    0.0000 N   0  0  0  0  0  0  0  0  0  0  0  0
    6.0917   -3.5917    0.0000 C   0  0  0  0  0  0  0  0  0  0  0  0
    6.9125   -3.5917    0.0000 C   0  0  0  0  0  0  0  0  0  0  0  0
    5.6792   -4.3042    0.0000 C   0  0  0  0  0  0  0  0  0  0  0  0
    7.3167   -2.8792    0.0000 C   0  0  0  0  0  0  0  0  0  0  0  0
    7.3167   -4.3042    0.0000 C   0  0  0  0  0  0  0  0  0  0  0  0
    8.5500   -3.5917    0.0000 C   0  0  0  0  0  0  0  0  0  0  0  0
    5.6792   -2.8792    0.0000 O   0  0  0  0  0  0  0  0  0  0  0  0
    8.1375   -4.3042    0.0000 C   0  0  0  0  0  0  0  0  0  0  0  0
    8.1375   -2.8792    0.0000 C   0  0  0  0  0  0  0  0  0  0  0  0
    9.3750   -3.5917    0.0000 Cl  0  0  0  0  0  0  0  0  0  0  0  0
    4.7375   -1.2167    0.0000 Cl  0  0  0  0  0  0  0  0  0  0  0  0
    4.4417   -2.1667    0.0000 C   0  0  0  0  0  0  0  0  0  0  0  0
    4.8542   -2.8792    0.0000 C   0  0  0  0  0  0  0  0  0  0  0  0
    3.2167   -2.8792    0.0000 C   0  0  0  0  0  0  0  0  0  0  0  0
    3.2167   -1.4500    0.0000 C   0  0  0  0  0  0  0  0  0  0  0  0
    4.8542   -4.3000    0.0000 C   0  0  0  0  0  0  0  0  0  0  0  0
    6.0917   -5.0125    0.0000 C   0  0  0  0  0  0  0  0  0  0  0  0
    2.3917   -2.8792    0.0000 C   0  0  0  0  0  0  0  0  0  0  0  0
    2.3917   -1.4500    0.0000 C   0  0  0  0  0  0  0  0  0  0  0  0
    5.6792   -5.7292    0.0000 C   0  0  0  0  0  0  0  0  0  0  0  0
    4.4417   -5.0167    0.0000 C   0  0  0  0  0  0  0  0  0  0  0  0
    1.9750   -2.1667    0.0000 C   0  0  0  0  0  0  0  0  0  0  0  0
    4.8542   -5.7292    0.0000 C   0  0  0  0  0  0  0  0  0  0  0  0
  2  8  1  0
  3  2  1  0
  4  2  1  0
  5  3  2  0
  6  3  1  0
  7  9  1  0
  8 14  1  0
  9  6  2  0
 10  5  1  0
 11  7  1  0
 13  1  1  0
 14 13  1  0
 15  1  1  0
 16  1  1  0
 17  4  2  0
 18  4  1  0
 19 15  1  0
 20 16  1  0
 21 18  2  0
 22 17  1  0
 23 19  1  0
 24 22  2  0
 20 23  1  0
 10  7  2  0
 21 24  1  0
M  END
>  <ID>  (1282) 


>  <MOLENAME>  (1282) 
CLOPERASTINE HYDROCHLORIDE

>  <therap>  (1282) 
antitussive

>  <ref>  (1282) 
Eur Rev Med Pharmacol Sci 5:227 (1983); Internista 10:153 (2002); Can J Physiol Pharmacol 87:893 (2009); Ther Clin Risk Manag. 7:83 (2011)

>  <cas#>  (1282) 
3703-76-2

>  <source>  (1282) 
synthetic; HT-11

>  <status>  (1282) 
INN, JAN

>  <tradename>  (1282) 
NOTUSSIL

>  <SMILES>  (1282) 
Clc1ccc(C(OCCN2CCCCC2)c2ccccc2)cc1

>  <standardized_failed>  (1282) 
False

$$$$

     RDKit          2D

 39 38  0  0  0  0  0  0  0  0999 V2000
    7.1167   -7.6417    0.0000 S   0  0  0  0  0  0  0  0  0  0  0  0
   -0.4833   -2.6375    0.0000 S   0  0  0  0  0  0  0  0  0  0  0  0
    2.0417   -2.5542    0.0000 C   0  0  0  0  0  0  0  0  0  0  0  0
    9.9167   -7.1000    0.0000 C   0  0  0  0  0  0  0  0  0  0  0  0
    6.4042   -8.0542    0.0000 C   0  0  0  0  0  0  0  0  0  0  0  0
   -1.1958   -3.0500    0.0000 C   0  0  0  0  0  0  0  0  0  0  0  0
   -0.9250   -1.9875    0.0000 O   0  0  0  0  0  0  0  0  0  0  0  0
   -0.1208   -2.0792    0.0000 O   0  0  0  0  0  0  0  0  0  0  0  0
    6.6750   -6.9917    0.0000 O   0  0  0  0  0  0  0  0  0  0  0  0
    7.4792   -7.0875    0.0000 O   0  0  0  0  0  0  0  0  0  0  0  0
    9.5417   -6.4417    0.0000 C   0  0  0  0  0  0  0  0  0  0  0  0
    2.7917   -2.5542    0.0000 C   0  0  0  0  0  0  0  0  0  0  0  0
    1.6667   -1.9125    0.0000 N   0  0  0  0  0  0  0  0  0  0  0  0
   10.6750   -7.1042    0.0000 N   0  0  0  0  0  0  0  0  0  0  0  0
    7.8292   -8.0542    0.0000 O   0  0  0  0  0  0  0  0  0  0  0  0
    0.2292   -3.0500    0.0000 O   0  0  0  0  0  0  0  0  0  0  0  0
    3.1667   -1.9042    0.0000 C   0  0  0  0  0  0  0  0  0  0  0  0
    8.7917   -6.4417    0.0000 C   0  0  0  0  0  0  0  0  0  0  0  0
    3.1667   -3.2042    0.0000 C   0  0  0  0  0  0  0  0  0  0  0  0
    9.9167   -5.7875    0.0000 C   0  0  0  0  0  0  0  0  0  0  0  0
    9.5375   -7.7500    0.0000 N   0  0  0  0  0  0  0  0  0  0  0  0
    1.6667   -3.2042    0.0000 N   0  0  0  0  0  0  0  0  0  0  0  0
    4.2917   -2.5542    0.0000 C   0  0  0  0  0  0  0  0  0  0  0  0
    8.7917   -5.1417    0.0000 C   0  0  0  0  0  0  0  0  0  0  0  0
    3.9167   -3.2042    0.0000 C   0  0  0  0  0  0  0  0  0  0  0  0
    8.4167   -5.7917    0.0000 C   0  0  0  0  0  0  0  0  0  0  0  0
    9.5417   -5.1417    0.0000 C   0  0  0  0  0  0  0  0  0  0  0  0
    3.9167   -1.9042    0.0000 C   0  0  0  0  0  0  0  0  0  0  0  0
    8.4167   -4.4917    0.0000 O   0  0  0  0  0  0  0  0  0  0  0  0
    5.0417   -2.5542    0.0000 O   0  0  0  0  0  0  0  0  0  0  0  0
    4.9792   -8.0542    0.0000 O   0  0  0  0  0  0  0  0  0  0  0  0
   -2.6208   -3.0500    0.0000 O   0  0  0  0  0  0  0  0  0  0  0  0
    5.6917   -7.6417    0.0000 C   0  0  0  0  0  0  0  0  0  0  0  0
   -1.9083   -2.6375    0.0000 C   0  0  0  0  0  0  0  0  0  0  0  0
    5.4167   -3.2042    0.0000 C   0  0  0  0  0  0  0  0  0  0  0  0
    7.6667   -4.4917    0.0000 C   0  0  0  0  0  0  0  0  0  0  0  0
    7.2917   -3.8500    0.0000 C   0  0  0  0  0  0  0  0  0  0  0  0
    6.1667   -3.2042    0.0000 C   0  0  0  0  0  0  0  0  0  0  0  0
    6.5417   -3.8500    0.0000 C   0  0  0  0  0  0  0  0  0  0  0  0
  4 11  1  0
  5  1  1  0
  6  2  1  0
  7  2  2  0
  8  2  2  0
  9  1  2  0
 10  1  2  0
 11 20  2  0
 12  3  1  0
 13  3  2  0
 14  4  2  0
 15  1  1  0
 16  2  1  0
 17 12  2  0
 18 26  2  0
 19 12  1  0
 20 27  1  0
 21  4  1  0
 22  3  1  0
 23 25  1  0
 24 29  1  0
 25 19  2  0
 26 24  1  0
 27 24  2  0
 28 17  1  0
 29 36  1  0
 30 23  1  0
 31 33  1  0
 32 34  1  0
 33  5  1  0
 34  6  1  0
 35 30  1  0
 36 37  1  0
 37 39  1  0
 38 35  1  0
 39 38  1  0
 28 23  2  0
 18 11  1  0
M  END
>  <ID>  (1283) 


>  <MOLENAME>  (1283) 
PENTAMIDINE ISETHIONATE

>  <therap>  (1283) 
antiprotozoal, inhibits nucleic acid & protein synthesis

>  <ref>  (1283) 
Antimicrob Agents Chemother 38:1123 (1994); AIDS 10 :237 (1996); Clin Infect Dis 42:1812 (2006)

>  <cas#>  (1283) 
100-33-4

>  <source>  (1283) 
synthetic; MB-800, RP-2512

>  <status>  (1283) 
INN, BAN, JAN

>  <tradename>  (1283) 
NEBUPENT

>  <SMILES>  (1283) 
N=C(N)c1ccc(OCCCCCOc2ccc(C(=N)N)cc2)cc1

>  <standardized_failed>  (1283) 
False

$$$$

     RDKit          2D

 16 17  0  0  0  0  0  0  0  0999 V2000
    5.4542   -3.5167    0.0000 C   0  0  0  0  0  0  0  0  0  0  0  0
    4.7417   -3.9250    0.0000 C   0  0  0  0  0  0  0  0  0  0  0  0
    4.0375   -3.5167    0.0000 N   0  0  0  0  0  0  0  0  0  0  0  0
    5.4542   -2.6917    0.0000 C   0  0  0  0  0  0  0  0  0  0  0  0
    6.1667   -3.9292    0.0000 C   0  0  0  0  0  0  0  0  0  0  0  0
    6.8792   -3.5250    0.0000 C   0  0  0  0  0  0  0  0  0  0  0  0
    6.8792   -2.7000    0.0000 C   0  0  0  0  0  0  0  0  0  0  0  0
    6.1667   -2.2792    0.0000 C   0  0  0  0  0  0  0  0  0  0  0  0
    7.6625   -3.7792    0.0000 O   0  0  0  0  0  0  0  0  0  0  0  0
    7.6667   -2.4500    0.0000 O   0  0  0  0  0  0  0  0  0  0  0  0
    8.1500   -3.1167    0.0000 C   0  0  0  0  0  0  0  0  0  0  0  0
    4.0375   -2.6917    0.0000 C   0  0  0  0  0  0  0  0  0  0  0  0
    4.7417   -2.2750    0.0000 C   0  0  0  0  0  0  0  0  0  0  0  0
    4.7500   -4.7500    0.0000 O   0  0  0  0  0  0  0  0  0  0  0  0
    1.7042   -3.3667    0.0000 Cl  0  0  0  0  0  0  0  0  0  0  0  0
    3.3167   -3.9292    0.0000 C   0  0  0  0  0  0  0  0  0  0  0  0
  2  1  1  0
  3  2  1  0
  4  1  2  0
  5  1  1  0
  6  5  2  0
  7  6  1  0
  8  4  1  0
  9  6  1  0
 10  7  1  0
 11  9  1  0
 12 13  1  0
 13  4  1  0
 14  2  1  0
 16  3  1  0
  8  7  2  0
 12  3  1  0
 11 10  1  0
M  END
>  <ID>  (1284) 


>  <MOLENAME>  (1284) 
HYDRASTININE HYDROCHLORIDE

>  <therap>  (1284) 
cardiotonic, uterine hemostatic

>  <ref>  (1284) 
Biochem J 5:243 (1911); J Physiol 45:1 (1914); Acta Pharmacol Toxicol 10:338 (1954)

>  <cas#>  (1284) 
4884-68-8, 6592-85-4 [hydrastinine]

>  <source>  (1284) 
derivative of hydrastine (01501009)

>  <status>  (1284) 
INN, NF-VIII

>  <tradename>  (1284) 
nan

>  <SMILES>  (1284) 
CN1CCc2c(cc3OCOc3c2)C1O

>  <standardized_failed>  (1284) 
False

$$$$

     RDKit          2D

 29 31  0  0  0  0  0  0  0  0999 V2000
    5.3542   -5.5417    0.0000 C   0  0  0  0  0  0  0  0  0  0  0  0
    3.7125   -5.5667    0.0000 S   0  0  0  0  0  0  0  0  0  0  0  0
    4.9375   -4.8417    0.0000 C   0  0  0  0  0  0  0  0  0  0  0  0
    4.9542   -6.2667    0.0000 C   0  0  0  0  0  0  0  0  0  0  0  0
    4.1125   -4.8542    0.0000 C   0  0  0  0  0  0  0  0  0  0  0  0
    4.1292   -6.2750    0.0000 C   0  0  0  0  0  0  0  0  0  0  0  0
    6.1792   -5.5292    0.0000 C   0  0  0  0  0  0  0  0  0  0  0  0
    7.8292   -5.5042    0.0000 N   0  0  0  0  0  0  0  0  0  0  0  0
    9.7875   -7.2292    0.0000 C   0  0  0  0  0  0  0  0  0  0  0  0
    9.7875   -5.8500    0.0000 C   0  0  0  0  0  0  0  0  0  0  0  0
    9.1917   -6.2000    0.0000 C   0  0  0  0  0  0  0  0  0  0  0  0
    9.1917   -6.8917    0.0000 C   0  0  0  0  0  0  0  0  0  0  0  0
    6.5917   -4.8125    0.0000 C   0  0  0  0  0  0  0  0  0  0  0  0
    6.6125   -6.2375    0.0000 C   0  0  0  0  0  0  0  0  0  0  0  0
   10.3792   -6.8917    0.0000 O   0  0  0  0  0  0  0  0  0  0  0  0
    9.7875   -5.1542    0.0000 O   0  0  0  0  0  0  0  0  0  0  0  0
    7.4375   -6.2292    0.0000 C   0  0  0  0  0  0  0  0  0  0  0  0
    7.4167   -4.8042    0.0000 C   0  0  0  0  0  0  0  0  0  0  0  0
   10.3792   -6.2000    0.0000 O   0  0  0  0  0  0  0  0  0  0  0  0
    9.7875   -7.9292    0.0000 O   0  0  0  0  0  0  0  0  0  0  0  0
    5.3375   -4.1250    0.0000 C   0  0  0  0  0  0  0  0  0  0  0  0
    5.3792   -6.9667    0.0000 C   0  0  0  0  0  0  0  0  0  0  0  0
    3.7292   -6.9917    0.0000 C   0  0  0  0  0  0  0  0  0  0  0  0
    3.6917   -4.1417    0.0000 C   0  0  0  0  0  0  0  0  0  0  0  0
    8.6542   -5.5000    0.0000 C   0  0  0  0  0  0  0  0  0  0  0  0
    4.9750   -7.6875    0.0000 C   0  0  0  0  0  0  0  0  0  0  0  0
    4.9167   -3.4167    0.0000 C   0  0  0  0  0  0  0  0  0  0  0  0
    4.0917   -3.4167    0.0000 C   0  0  0  0  0  0  0  0  0  0  0  0
    4.1500   -7.7000    0.0000 C   0  0  0  0  0  0  0  0  0  0  0  0
  2  6  1  0
  3  1  1  0
  4  1  1  0
  5  3  2  0
  6  4  2  0
  7  1  2  0
  8 17  1  0
 10 11  1  0
 11 12  2  0
 12  9  1  0
 13  7  1  0
 14  7  1  0
 15  9  2  0
 16 10  2  0
 17 14  1  0
 18 13  1  0
 19 10  1  0
 20  9  1  0
 21  3  1  0
 22  4  1  0
 23  6  1  0
 24  5  1  0
 25  8  1  0
 26 22  2  0
 27 21  2  0
 28 24  2  0
 29 23  2  0
  5  2  1  0
  8 18  1  0
 29 26  1  0
 27 28  1  0
M  END
>  <ID>  (1285) 


>  <MOLENAME>  (1285) 
PIMETHIXENE MALEATE

>  <therap>  (1285) 
H1 antihistamine

>  <ref>  (1285) 
Pharmaceut Chem J 18:736 (1985); J Med Chem 51:219 (2008)

>  <cas#>  (1285) 
314-03-4

>  <source>  (1285) 
synthetic; BP-400

>  <status>  (1285) 
INN

>  <tradename>  (1285) 
nan

>  <SMILES>  (1285) 
CN1CCC(=C2c3c(cccc3)Sc3c2cccc3)CC1

>  <standardized_failed>  (1285) 
False

$$$$

     RDKit          2D

 25 26  0  0  0  0  0  0  0  0999 V2000
    2.1917   -2.2667    0.0000 C   0  0  0  0  0  0  0  0  0  0  0  0
    1.4875   -3.5167    0.0000 N   0  0  0  0  0  0  0  0  0  0  0  0
    0.7667   -3.1042    0.0000 C   0  0  0  0  0  0  0  0  0  0  0  0
    1.4792   -1.8625    0.0000 C   0  0  0  0  0  0  0  0  0  0  0  0
    0.7667   -2.2792    0.0000 C   0  0  0  0  0  0  0  0  0  0  0  0
    2.1917   -3.1000    0.0000 C   0  0  0  0  0  0  0  0  0  0  0  0
    2.7417   -0.2792    0.0000 C   0  0  0  0  0  0  0  0  0  0  0  0
    0.0542   -3.5167    0.0000 C   0  0  0  0  0  0  0  0  0  0  0  0
    0.0542   -1.8667    0.0000 C   0  0  0  0  0  0  0  0  0  0  0  0
    2.9042   -1.8542    0.0000 C   0  0  0  0  0  0  0  0  0  0  0  0
    2.7417    0.3875    0.0000 O   0  0  0  0  0  0  0  0  0  0  0  0
    2.9167   -3.5042    0.0000 C   0  0  0  0  0  0  0  0  0  0  0  0
    1.4750   -1.0375    0.0000 N   0  0  0  0  0  0  0  0  0  0  0  0
   -0.6583   -3.1042    0.0000 C   0  0  0  0  0  0  0  0  0  0  0  0
    3.3292   -0.6167    0.0000 C   0  0  0  0  0  0  0  0  0  0  0  0
    3.6250   -2.2542    0.0000 C   0  0  0  0  0  0  0  0  0  0  0  0
   -0.6583   -2.2792    0.0000 C   0  0  0  0  0  0  0  0  0  0  0  0
    2.1667   -0.6167    0.0000 O   0  0  0  0  0  0  0  0  0  0  0  0
   -1.3750   -3.5167    0.0000 N   0  0  0  0  0  0  0  0  0  0  0  0
    3.6292   -3.0917    0.0000 C   0  0  0  0  0  0  0  0  0  0  0  0
    3.5042   -1.2667    0.0000 O   0  0  0  0  0  0  0  0  0  0  0  0
    4.3375   -1.8375    0.0000 O   0  0  0  0  0  0  0  0  0  0  0  0
    3.9042   -0.2792    0.0000 C   0  0  0  0  0  0  0  0  0  0  0  0
    5.0542   -2.2417    0.0000 C   0  0  0  0  0  0  0  0  0  0  0  0
    5.7667   -1.8250    0.0000 C   0  0  0  0  0  0  0  0  0  0  0  0
  2  6  2  0
  3  5  2  0
  4  1  2  0
  5  4  1  0
  6  1  1  0
  8  3  1  0
  9  5  1  0
 10  1  1  0
 11  7  2  0
 12  6  1  0
 13  4  1  0
 14  8  2  0
 15  7  1  0
 16 10  2  0
 17  9  2  0
 18  7  1  0
 19 14  1  0
 20 16  1  0
 21 15  1  0
 22 16  1  0
 23 15  1  0
 24 22  1  0
 25 24  1  0
  3  2  1  0
 20 12  2  0
 14 17  1  0
M  END
>  <ID>  (1286) 


>  <MOLENAME>  (1286) 
ETHACRIDINE LACTATE

>  <therap>  (1286) 
antiseptic, abortifaceant

>  <ref>  (1286) 
Clin Obster Gynacol 11:573 (1984)

>  <cas#>  (1286) 
1837-57-6; 6402-23-9 (hydrate)

>  <source>  (1286) 
synthetic

>  <status>  (1286) 
INN, BAN, JAN

>  <tradename>  (1286) 
RIVANOL

>  <SMILES>  (1286) 
CCOc1cc2c(N)c3c(cc(N)cc3)nc2cc1

>  <standardized_failed>  (1286) 
False

$$$$

     RDKit          2D

 19 19  0  0  0  0  0  0  0  0999 V2000
    7.5042   -2.9750    0.0000 N   0  0  0  0  0  0  0  0  0  0  0  0
    6.0792   -3.7917    0.0000 P   0  0  0  0  0  0  0  0  0  0  0  0
    8.2167   -2.5625    0.0000 C   0  0  0  0  0  0  0  0  0  0  0  0
    7.5042   -3.7917    0.0000 C   0  0  0  0  0  0  0  0  0  0  0  0
    6.7917   -4.2042    0.0000 O   0  0  0  0  0  0  0  0  0  0  0  0
    8.9292   -2.9750    0.0000 N   0  0  0  0  0  0  0  0  0  0  0  0
    8.2167   -4.2125    0.0000 C   0  0  0  0  0  0  0  0  0  0  0  0
    5.3625   -3.3792    0.0000 S   0  0  0  0  0  0  0  0  0  0  0  0
    8.9292   -3.8000    0.0000 C   0  0  0  0  0  0  0  0  0  0  0  0
    8.2125   -1.7375    0.0000 C   0  0  0  0  0  0  0  0  0  0  0  0
    5.3625   -4.2042    0.0000 O   0  0  0  0  0  0  0  0  0  0  0  0
    6.0792   -2.9667    0.0000 O   0  0  0  0  0  0  0  0  0  0  0  0
    9.6417   -4.2125    0.0000 C   0  0  0  0  0  0  0  0  0  0  0  0
    5.3667   -2.5542    0.0000 C   0  0  0  0  0  0  0  0  0  0  0  0
    5.3625   -5.0292    0.0000 C   0  0  0  0  0  0  0  0  0  0  0  0
    7.4917   -1.3250    0.0000 C   0  0  0  0  0  0  0  0  0  0  0  0
    8.9250   -1.3167    0.0000 C   0  0  0  0  0  0  0  0  0  0  0  0
    5.3667   -1.7292    0.0000 C   0  0  0  0  0  0  0  0  0  0  0  0
    4.6500   -5.4417    0.0000 C   0  0  0  0  0  0  0  0  0  0  0  0
  2  5  1  0
  3  1  2  0
  4  1  1  0
  5  4  1  0
  6  3  1  0
  7  4  2  0
  8  2  2  0
  9  7  1  0
 10  3  1  0
 11  2  1  0
 12  2  1  0
 13  9  1  0
 14 12  1  0
 15 11  1  0
 16 10  1  0
 17 10  1  0
 18 14  1  0
 19 15  1  0
  6  9  2  0
M  END
>  <ID>  (1287) 


>  <MOLENAME>  (1287) 
DIMPYLATE

>  <therap>  (1287) 
insecticide, cholinesterase inhibitor

>  <ref>  (1287) 
JAMA 208:1025 (1969); J Clin Psychopharmacol 10:72 (1990)

>  <cas#>  (1287) 
333-41-5

>  <source>  (1287) 
synthetic; G-24480

>  <status>  (1287) 
INN, BAN

>  <tradename>  (1287) 
DIAZINON

>  <SMILES>  (1287) 
CCOP(=S)(OCC)Oc1cc(C)nc(C(C)C)n1

>  <standardized_failed>  (1287) 
False

$$$$

     RDKit          2D

  6  3  0  0  0  0  0  0  0  0999 V2000
    5.1917   -4.6167    0.0000 C   0  0  0  0  0  0  0  0  0  0  0  0
    5.1917   -5.3667    0.0000 N   0  0  0  0  0  0  0  0  0  0  0  0
    4.5417   -4.2417    0.0000 N   0  0  0  0  0  0  0  0  0  0  0  0
    5.8417   -4.2417    0.0000 N   0  0  0  0  0  0  0  0  0  0  0  0
    7.4167   -3.9625    0.0000 Cl  0  0  0  0  0  0  0  0  0  0  0  0
    2.9917   -4.0250    0.0000 Cl  0  0  0  0  0  0  0  0  0  0  0  0
  2  1  2  0
  3  1  1  0
  4  1  1  0
M  END
>  <ID>  (1288) 


>  <MOLENAME>  (1288) 
GUANIDINE HYDROCHLORIDE

>  <therap>  (1288) 
cholinergic

>  <ref>  (1288) 
Pharmazie 3:5 (1948)

>  <cas#>  (1288) 
50-01-1

>  <source>  (1288) 
mushrooms, grains, earthworms

>  <status>  (1288) 
INN

>  <tradename>  (1288) 
nan

>  <SMILES>  (1288) 
N=C(N)N

>  <standardized_failed>  (1288) 
False

$$$$

     RDKit          2D

 20 18  0  0  0  0  0  0  0  0999 V2000
    7.6750   -2.3167    0.0000 S   0  0  0  0  0  0  0  0  0  0  0  0
    8.3875   -1.9042    0.0000 O   0  0  0  0  0  0  0  0  0  0  0  0
    6.9625   -1.9042    0.0000 O   0  0  0  0  0  0  0  0  0  0  0  0
    8.2542   -2.9000    0.0000 O   0  0  0  0  0  0  0  0  0  0  0  0
    7.0875   -2.9000    0.0000 O   0  0  0  0  0  0  0  0  0  0  0  0
    6.2500   -2.3167    0.0000 C   0  0  0  0  0  0  0  0  0  0  0  0
    6.2417   -3.1417    0.0000 C   0  0  0  0  0  0  0  0  0  0  0  0
    5.5375   -1.9125    0.0000 C   0  0  0  0  0  0  0  0  0  0  0  0
    9.8375   -2.3667    0.0000 Na  0  0  0  0  0 15  0  0  0  0  0  0
    4.8250   -2.3250    0.0000 C   0  0  0  0  0  0  0  0  0  0  0  0
    5.5292   -3.5542    0.0000 C   0  0  0  0  0  0  0  0  0  0  0  0
    4.1125   -1.9167    0.0000 C   0  0  0  0  0  0  0  0  0  0  0  0
    4.1083   -1.0917    0.0000 C   0  0  0  0  0  0  0  0  0  0  0  0
    3.4000   -2.3292    0.0000 C   0  0  0  0  0  0  0  0  0  0  0  0
    1.9750   -2.3292    0.0000 C   0  0  0  0  0  0  0  0  0  0  0  0
    2.6875   -1.9167    0.0000 C   0  0  0  0  0  0  0  0  0  0  0  0
    5.5250   -4.3792    0.0000 C   0  0  0  0  0  0  0  0  0  0  0  0
    4.8167   -3.1375    0.0000 C   0  0  0  0  0  0  0  0  0  0  0  0
    4.8208   -0.6750    0.0000 C   0  0  0  0  0  0  0  0  0  0  0  0
    1.2625   -1.9250    0.0000 C   0  0  0  0  0  0  0  0  0  0  0  0
  2  1  1  0
  3  1  1  0
  4  1  2  0
  5  1  2  0
  6  3  1  0
  7  6  1  0
  8  6  1  0
 10  8  1  0
 11  7  1  0
 12 10  1  0
 13 12  1  0
 14 12  1  0
 15 16  1  0
 16 14  1  0
 17 11  1  0
 18 11  1  0
 19 13  1  0
 20 15  1  0
M  CHG  2   2  -1   9   1
M  END
>  <ID>  (1289) 


>  <MOLENAME>  (1289) 
SODIUM TETRADECYL SULFATE

>  <therap>  (1289) 
sclerosing agent

>  <ref>  (1289) 
J Ind Hyg Toxicol 30:63 (1948)

>  <cas#>  (1289) 
139-88-8

>  <source>  (1289) 
synthetic

>  <status>  (1289) 
INN

>  <tradename>  (1289) 
SOTRADECOL

>  <SMILES>  (1289) 
CCCCC(CC)CCC(CC(C)C)OS(=O)(=O)O

>  <standardized_failed>  (1289) 
False

$$$$

     RDKit          2D

 28 30  0  0  0  0  0  0  0  0999 V2000
    4.0792   -3.6167    0.0000 C   0  0  0  0  0  0  0  0  0  0  0  0
    3.6667   -4.3375    0.0000 C   0  0  0  0  0  0  0  0  0  0  0  0
    4.4917   -4.3375    0.0000 C   0  0  0  0  0  0  0  0  0  0  0  0
    5.2042   -4.7500    0.0000 C   0  0  0  0  0  0  0  0  0  0  0  0
    2.9542   -4.7500    0.0000 C   0  0  0  0  0  0  0  0  0  0  0  0
    5.9167   -4.3375    0.0000 O   0  0  0  0  0  0  0  0  0  0  0  0
    2.2417   -4.3375    0.0000 C   0  0  0  0  0  0  0  0  0  0  0  0
    6.6292   -6.4000    0.0000 N   0  0  0  0  0  0  0  0  0  0  0  0
    6.6375   -5.5750    0.0000 C   0  0  0  0  0  0  0  0  0  0  0  0
    6.6375   -4.7500    0.0000 C   0  0  0  0  0  0  0  0  0  0  0  0
    7.3500   -4.3375    0.0000 C   0  0  0  0  0  0  0  0  0  0  0  0
    5.2042   -5.5750    0.0000 O   0  0  0  0  0  0  0  0  0  0  0  0
    7.3500   -3.5167    0.0000 C   0  0  0  0  0  0  0  0  0  0  0  0
    8.0542   -3.1000    0.0000 C   0  0  0  0  0  0  0  0  0  0  0  0
    8.0542   -2.2750    0.0000 O   0  0  0  0  0  0  0  0  0  0  0  0
    3.3667   -3.2042    0.0000 C   0  0  0  0  0  0  0  0  0  0  0  0
    4.6667   -3.0292    0.0000 C   0  0  0  0  0  0  0  0  0  0  0  0
    1.5250   -4.7500    0.0000 Cl  0  0  0  0  0  0  0  0  0  0  0  0
    2.2375   -3.5125    0.0000 Cl  0  0  0  0  0  0  0  0  0  0  0  0
    8.7667   -1.8625    0.0000 C   0  0  0  0  0  0  0  0  0  0  0  0
    8.0625   -4.7500    0.0000 C   0  0  0  0  0  0  0  0  0  0  0  0
    8.7792   -4.3417    0.0000 C   0  0  0  0  0  0  0  0  0  0  0  0
    8.7792   -3.5125    0.0000 C   0  0  0  0  0  0  0  0  0  0  0  0
    8.7625   -1.0417    0.0000 C   0  0  0  0  0  0  0  0  0  0  0  0
    9.4792   -2.2750    0.0000 C   0  0  0  0  0  0  0  0  0  0  0  0
   10.1917   -1.8625    0.0000 C   0  0  0  0  0  0  0  0  0  0  0  0
    9.4750   -0.6250    0.0000 C   0  0  0  0  0  0  0  0  0  0  0  0
   10.1917   -1.0375    0.0000 C   0  0  0  0  0  0  0  0  0  0  0  0
  2  1  1  0
  3  1  1  0
  4  3  1  0
  5  2  1  0
  6  4  1  0
  7  5  2  0
  8  9  3  0
  9 10  1  0
 10  6  1  0
 11 10  1  0
 12  4  2  0
 13 11  2  0
 14 13  1  0
 15 14  1  0
 16  1  1  0
 17  1  1  0
 18  7  1  0
 19  7  1  0
 20 15  1  0
 21 11  1  0
 22 21  2  0
 23 22  1  0
 24 20  2  0
 25 20  1  0
 26 25  2  0
 27 24  1  0
 28 26  1  0
  3  2  1  0
 14 23  2  0
 27 28  2  0
M  END
>  <ID>  (1290) 


>  <MOLENAME>  (1290) 
CYPERMETHRIN

>  <therap>  (1290) 
insecticide

>  <ref>  (1290) 
Pestic Sci 6:537 (1975); 8:264 (1977); Arch Toxicol 67:510 (1993)

>  <cas#>  (1290) 
52315-07-8

>  <source>  (1290) 
synthetic; FMC-30980, PP-383

>  <status>  (1290) 
BAN

>  <tradename>  (1290) 
BASATHRIN

>  <SMILES>  (1290) 
CC1(C)C(C=C(Cl)Cl)C1C(=O)OC(C#N)c1cc(Oc2ccccc2)ccc1

>  <standardized_failed>  (1290) 
False

$$$$

     RDKit          2D

 22 24  0  0  0  0  0  0  0  0999 V2000
    5.5333   -1.5208    0.0000 C   0  0  0  0  0  0  0  0  0  0  0  0
    6.2500   -1.1042    0.0000 C   0  0  0  0  0  0  0  0  0  0  0  0
    6.2500   -0.2792    0.0000 C   0  0  0  0  0  0  0  0  0  0  0  0
    5.5375   -2.3458    0.0000 O   0  0  0  0  0  0  0  0  0  0  0  0
    6.9667   -1.5167    0.0000 N   0  0  0  0  0  0  0  0  0  0  0  0
    4.8250   -2.7625    0.0000 C   0  0  0  0  0  0  0  0  0  0  0  0
    4.8208   -1.1083    0.0000 C   0  0  0  0  0  0  0  0  0  0  0  0
    5.5333    0.1333    0.0000 C   0  0  0  0  0  0  0  0  0  0  0  0
    4.8208   -0.2792    0.0000 C   0  0  0  0  0  0  0  0  0  0  0  0
    6.9583    0.1375    0.0000 C   0  0  0  0  0  0  0  0  0  0  0  0
    4.1083   -2.3500    0.0000 O   0  0  0  0  0  0  0  0  0  0  0  0
    4.8250   -3.5875    0.0000 C   0  0  0  0  0  0  0  0  0  0  0  0
    7.6792   -1.1000    0.0000 C   0  0  0  0  0  0  0  0  0  0  0  0
    4.1042   -1.5208    0.0000 Br  0  0  0  0  0  0  0  0  0  0  0  0
    5.5292    0.9583    0.0000 Br  0  0  0  0  0  0  0  0  0  0  0  0
    7.6750   -0.2708    0.0000 C   0  0  0  0  0  0  0  0  0  0  0  0
    4.1083   -3.9958    0.0000 C   0  0  0  0  0  0  0  0  0  0  0  0
    5.5375   -3.9917    0.0000 C   0  0  0  0  0  0  0  0  0  0  0  0
    8.3958   -1.5083    0.0000 C   0  0  0  0  0  0  0  0  0  0  0  0
    5.5417   -4.8125    0.0000 C   0  0  0  0  0  0  0  0  0  0  0  0
    4.1083   -4.8208    0.0000 C   0  0  0  0  0  0  0  0  0  0  0  0
    4.8250   -5.2333    0.0000 C   0  0  0  0  0  0  0  0  0  0  0  0
  2  1  1  0
  3  2  1  0
  4  1  1  0
  5  2  2  0
  6  4  1  0
  7  1  2  0
  8  3  1  0
  9  7  1  0
 10  3  2  0
 11  6  2  0
 12  6  1  0
 13  5  1  0
 14  7  1  0
 15  8  1  0
 16 13  2  0
 17 12  2  0
 18 12  1  0
 19 13  1  0
 20 18  2  0
 21 17  1  0
 22 20  1  0
  9  8  2  0
 10 16  1  0
 22 21  2  0
M  END
>  <ID>  (1291) 


>  <MOLENAME>  (1291) 
BROXALDINE

>  <therap>  (1291) 
antiinfective, antifungal

>  <ref>  (1291) 
Arch Pharmazie 295:383 (1962); Lancet 1:405 (1975); Veterinarana-Sbirka 80:6 (1982)

>  <cas#>  (1291) 
3684-48-6

>  <source>  (1291) 
synthetic

>  <status>  (1291) 
INN

>  <tradename>  (1291) 
nan

>  <SMILES>  (1291) 
Cc1ccc2c(Br)cc(Br)c(OC(=O)c3ccccc3)c2n1

>  <standardized_failed>  (1291) 
False

$$$$

     RDKit          2D

 18 17  0  0  0  0  0  0  0  0999 V2000
    4.1250   -5.0167    0.0000 C   0  0  0  0  0  0  0  0  0  0  0  0
    4.5292   -4.3042    0.0000 C   0  0  0  0  0  0  0  0  0  0  0  0
    4.5292   -5.7292    0.0000 C   0  0  0  0  0  0  0  0  0  0  0  0
    5.7667   -5.0167    0.0000 C   0  0  0  0  0  0  0  0  0  0  0  0
    5.3542   -5.7292    0.0000 C   0  0  0  0  0  0  0  0  0  0  0  0
    5.3542   -4.3042    0.0000 C   0  0  0  0  0  0  0  0  0  0  0  0
    7.8250   -5.7292    0.0000 N   0  0  0  0  0  0  0  0  0  0  0  0
    6.5917   -5.0167    0.0000 C   0  0  0  0  0  0  0  0  0  0  0  0
    8.2375   -6.4417    0.0000 C   0  0  0  0  0  0  0  0  0  0  0  0
    7.0042   -5.7292    0.0000 C   0  0  0  0  0  0  0  0  0  0  0  0
    3.3000   -5.0167    0.0000 N   0  0  0  0  0  0  0  0  0  0  0  0
    4.1167   -3.5917    0.0000 Cl  0  0  0  0  0  0  0  0  0  0  0  0
    4.1250   -6.4417    0.0000 Cl  0  0  0  0  0  0  0  0  0  0  0  0
    8.8542   -5.0250    0.0000 Cl  0  0  0  0  0  0  0  0  0  0  0  0
    7.0000   -4.3000    0.0000 O   0  0  0  0  0  0  0  0  0  0  0  0
    9.0625   -6.4375    0.0000 C   0  0  0  0  0  0  0  0  0  0  0  0
    8.6417   -7.1542    0.0000 C   0  0  0  0  0  0  0  0  0  0  0  0
    7.8250   -7.1542    0.0000 C   0  0  0  0  0  0  0  0  0  0  0  0
  2  1  2  0
  3  1  1  0
  4  5  1  0
  5  3  2  0
  6  2  1  0
  7 10  1  0
  8  4  1  0
  9  7  1  0
 10  8  1  0
 11  1  1  0
 12  2  1  0
 13  3  1  0
 15  8  1  0
 16  9  1  0
 17  9  1  0
 18  9  1  0
  4  6  2  0
M  END
>  <ID>  (1292) 


>  <MOLENAME>  (1292) 
CLENBUTEROL HYDROCHLORIDE

>  <therap>  (1292) 
bronchodilator, beta2 adrenergic agonist

>  <ref>  (1292) 
Arzneim Forsch 26:1404 (1976); Thorax, 32:717 (1977); Circulation 101:2213 (2000)

>  <cas#>  (1292) 
37148-27-9

>  <source>  (1292) 
synthetic; NAB-365

>  <status>  (1292) 
INN, BAN, JAN

>  <tradename>  (1292) 
SPIROPENT

>  <SMILES>  (1292) 
CC(C)(C)NCC(O)c1cc(Cl)c(N)c(Cl)c1

>  <standardized_failed>  (1292) 
False

$$$$

     RDKit          2D

 19 20  0  0  0  0  0  0  0  0999 V2000
    2.4167   -0.9542    0.0000 C   0  0  0  0  0  0  0  0  0  0  0  0
    5.9792   -1.3542    0.0000 N   0  0  0  0  0  0  0  0  0  0  0  0
    1.7083   -1.3708    0.0000 C   0  0  0  0  0  0  0  0  0  0  0  0
    2.4167   -0.1292    0.0000 O   0  0  0  0  0  0  0  0  0  0  0  0
    7.4042   -2.1792    0.0000 O   0  0  0  0  0  0  0  0  0  0  0  0
    3.1292   -1.3667    0.0000 N   0  0  0  0  0  0  0  0  0  0  0  0
    0.9917   -0.9583    0.0000 C   0  0  0  0  0  0  0  0  0  0  0  0
    1.7083   -2.2000    0.0000 C   0  0  0  0  0  0  0  0  0  0  0  0
    0.2792   -2.2000    0.0000 C   0  0  0  0  0  0  0  0  0  0  0  0
    0.2792   -1.3750    0.0000 C   0  0  0  0  0  0  0  0  0  0  0  0
    0.9917   -2.6125    0.0000 C   0  0  0  0  0  0  0  0  0  0  0  0
   -0.4375   -2.6125    0.0000 Cl  0  0  0  0  0  0  0  0  0  0  0  0
    5.2667   -0.9500    0.0000 C   0  0  0  0  0  0  0  0  0  0  0  0
    4.5542   -1.3625    0.0000 C   0  0  0  0  0  0  0  0  0  0  0  0
    6.6875   -0.9417    0.0000 C   0  0  0  0  0  0  0  0  0  0  0  0
    5.9833   -2.1792    0.0000 C   0  0  0  0  0  0  0  0  0  0  0  0
    3.8417   -0.9542    0.0000 C   0  0  0  0  0  0  0  0  0  0  0  0
    6.6917   -2.5875    0.0000 C   0  0  0  0  0  0  0  0  0  0  0  0
    7.4000   -1.3542    0.0000 C   0  0  0  0  0  0  0  0  0  0  0  0
  2 13  1  0
  3  1  1  0
  4  1  2  0
  5 19  1  0
  6  1  1  0
  7  3  2  0
  8  3  1  0
  9 10  2  0
 10  7  1  0
 11  8  2  0
 12  9  1  0
 13 14  1  0
 14 17  1  0
 15  2  1  0
 16  2  1  0
 17  6  1  0
 18 16  1  0
 19 15  1  0
 11  9  1  0
  5 18  1  0
M  END
>  <ID>  (1293) 


>  <MOLENAME>  (1293) 
EPROBEMIDE

>  <therap>  (1293) 
antidepressant

>  <ref>  (1293) 
Khim.-Farm. Zh. (1989), 23(11), 1304-9; Methods Find. Exp. Clin. Pharmacol. (1988), 10(10), 629-33; Bull. Exp. Biol. Med. (1991), 111(3), 279-80,

>  <cas#>  (1293) 
87940-60-1

>  <source>  (1293) 
synthetic

>  <status>  (1293) 
INN

>  <tradename>  (1293) 
nan

>  <SMILES>  (1293) 
O=C(NCCCN1CCOCC1)c1ccc(Cl)cc1

>  <standardized_failed>  (1293) 
False

$$$$

     RDKit          2D

 26 27  0  0  0  0  0  0  0  0999 V2000
    2.1667   -3.1417    0.0000 C   0  0  0  0  0  0  0  0  0  0  0  0
    1.4542   -3.5583    0.0000 C   0  0  0  0  0  0  0  0  0  0  0  0
    2.8792   -3.5542    0.0000 N   0  0  0  0  0  0  0  0  0  0  0  0
    0.7375   -3.1458    0.0000 C   0  0  0  0  0  0  0  0  0  0  0  0
    0.0250   -3.5625    0.0000 C   0  0  0  0  0  0  0  0  0  0  0  0
    0.0250   -4.3875    0.0000 C   0  0  0  0  0  0  0  0  0  0  0  0
    2.1625   -2.3167    0.0000 O   0  0  0  0  0  0  0  0  0  0  0  0
    1.4542   -4.3875    0.0000 C   0  0  0  0  0  0  0  0  0  0  0  0
    0.7375   -4.8000    0.0000 C   0  0  0  0  0  0  0  0  0  0  0  0
    3.5917   -3.1417    0.0000 C   0  0  0  0  0  0  0  0  0  0  0  0
    8.5750   -4.3667    0.0000 N   0  0  0  0  0  0  0  0  0  0  0  0
    4.3042   -3.5500    0.0000 C   0  0  0  0  0  0  0  0  0  0  0  0
    5.7250   -4.3667    0.0000 C   0  0  0  0  0  0  0  0  0  0  0  0
   -0.6875   -3.1500    0.0000 O   0  0  0  0  0  0  0  0  0  0  0  0
   -0.6917   -4.8000    0.0000 O   0  0  0  0  0  0  0  0  0  0  0  0
    4.3000   -4.3708    0.0000 C   0  0  0  0  0  0  0  0  0  0  0  0
    5.0083   -3.1375    0.0000 C   0  0  0  0  0  0  0  0  0  0  0  0
    5.7208   -3.5417    0.0000 C   0  0  0  0  0  0  0  0  0  0  0  0
    5.0125   -4.7792    0.0000 C   0  0  0  0  0  0  0  0  0  0  0  0
    6.4375   -4.7792    0.0000 O   0  0  0  0  0  0  0  0  0  0  0  0
    7.1500   -4.3667    0.0000 C   0  0  0  0  0  0  0  0  0  0  0  0
    7.8625   -4.7792    0.0000 C   0  0  0  0  0  0  0  0  0  0  0  0
    9.2875   -4.7750    0.0000 C   0  0  0  0  0  0  0  0  0  0  0  0
    8.5708   -3.5417    0.0000 C   0  0  0  0  0  0  0  0  0  0  0  0
   -0.6875   -2.3250    0.0000 C   0  0  0  0  0  0  0  0  0  0  0  0
   -1.4042   -4.3875    0.0000 C   0  0  0  0  0  0  0  0  0  0  0  0
  2  1  1  0
  3  1  1  0
  4  2  2  0
  5  4  1  0
  6  5  2  0
  7  1  2  0
  8  2  1  0
  9  8  2  0
 10  3  1  0
 11 22  1  0
 12 10  1  0
 13 19  2  0
 14  5  1  0
 15  6  1  0
 16 12  2  0
 17 12  1  0
 18 17  2  0
 19 16  1  0
 20 13  1  0
 21 20  1  0
 22 21  1  0
 23 11  1  0
 24 11  1  0
 25 14  1  0
 26 15  1  0
  9  6  1  0
 18 13  1  0
M  END
>  <ID>  (1294) 


>  <MOLENAME>  (1294) 
ITOPRIDE  HYDROCHLORIDE

>  <therap>  (1294) 
dyspepsia therapy

>  <ref>  (1294) 
Jpn J Pharmacol 71: 129 (1996); Jpn Pharmacol Ther 25:822 (1997)

>  <cas#>  (1294) 
122898-67-3

>  <source>  (1294) 
synthetic

>  <status>  (1294) 
INN

>  <tradename>  (1294) 
nan

>  <SMILES>  (1294) 
COc1c(OC)cc(C(=O)NCc2ccc(OCCN(C)C)cc2)cc1

>  <standardized_failed>  (1294) 
False

$$$$

     RDKit          2D

 21 21  0  0  0  0  0  0  0  0999 V2000
    5.9542   -7.1417    0.0000 C   0  0  0  0  0  0  0  0  0  0  0  0
    7.3167   -7.5792    0.0000 C   0  0  0  0  0  0  0  0  0  0  0  0
    6.7625   -6.9667    0.0000 O   0  0  0  0  0  0  0  0  0  0  0  0
    5.7042   -7.9292    0.0000 C   0  0  0  0  0  0  0  0  0  0  0  0
    7.0542   -8.3625    0.0000 C   0  0  0  0  0  0  0  0  0  0  0  0
    5.4042   -6.5292    0.0000 C   0  0  0  0  0  0  0  0  0  0  0  0
    6.2542   -8.5375    0.0000 C   0  0  0  0  0  0  0  0  0  0  0  0
    8.1042   -7.8417    0.0000 C   0  0  0  0  0  0  0  0  0  0  0  0
    4.8917   -8.1042    0.0000 N   0  0  0  0  0  0  0  0  0  0  0  0
    4.4167   -8.8667    0.0000 C   0  0  0  0  0  0  0  0  0  0  0  0
    5.6542   -5.7500    0.0000 C   0  0  0  0  0  0  0  0  0  0  0  0
    8.7167   -7.2917    0.0000 O   0  0  0  0  0  0  0  0  0  0  0  0
    4.8542   -9.5917    0.0000 O   0  0  0  0  0  0  0  0  0  0  0  0
    7.7625   -6.9667    0.0000 O   0  0  0  0  0  0  0  0  0  0  0  0
    4.6000   -6.7042    0.0000 O   0  0  0  0  0  0  0  0  0  0  0  0
    8.2750   -8.6500    0.0000 O   0  0  0  0  0  0  0  0  0  0  0  0
    6.0125   -9.3292    0.0000 O   0  0  0  0  0  0  0  0  0  0  0  0
    6.4625   -5.5750    0.0000 O   0  0  0  0  0  0  0  0  0  0  0  0
    4.3000   -5.3125    0.0000 O   0  0  0  0  0  0  0  0  0  0  0  0
    5.1042   -5.1375    0.0000 C   0  0  0  0  0  0  0  0  0  0  0  0
    3.4542   -8.8667    0.0000 C   0  0  0  0  0  0  0  0  0  0  0  0
  2  3  1  0
  3  1  1  0
  4  1  1  0
  5  7  1  0
  1  6  1  1
  7  4  1  0
  2  8  1  0
  4  9  1  6
 10  9  1  0
 11  6  1  0
 12  8  2  0
 13 10  2  0
  2 14  1  1
  6 15  1  0
 16  8  1  0
  7 17  1  6
 11 18  1  1
 19 20  1  0
 20 11  1  0
 21 10  1  0
  5  2  1  0
M  END
>  <ID>  (1295) 


>  <MOLENAME>  (1295) 
ACENEURAMIC ACID

>  <therap>  (1295) 
immunomodulator, adjuvant

>  <ref>  (1295) 
J Prakt Chemie 337:351 (1995); Microbiol Mol Biol Rev 68:132 (2004); Microbiology 153:2817 (2007)

>  <cas#>  (1295) 
131-48-6

>  <source>  (1295) 
semisynthetic

>  <status>  (1295) 
INN

>  <tradename>  (1295) 
nan

>  <SMILES>  (1295) 
CC(=O)N[C@H]1[C@@H](O)C[C@@](O)(C(=O)O)O[C@@H]1C(O)[C@H](O)CO

>  <standardized_failed>  (1295) 
False

$$$$

     RDKit          2D

 21 20  0  0  0  0  0  0  0  0999 V2000
   -1.2875   -0.5292    0.0000 C   0  0  0  0  0  0  0  0  0  0  0  0
    0.1417   -0.5292    0.0000 C   0  0  0  0  0  0  0  0  0  0  0  0
   -0.5750   -0.1167    0.0000 C   0  0  0  0  0  0  0  0  0  0  0  0
    1.5708   -0.5208    0.0000 N   0  0  0  0  0  0  0  0  0  0  0  0
    0.8542   -0.1125    0.0000 C   0  0  0  0  0  0  0  0  0  0  0  0
   -1.2875   -1.3583    0.0000 C   0  0  0  0  0  0  0  0  0  0  0  0
    0.1417   -1.3583    0.0000 C   0  0  0  0  0  0  0  0  0  0  0  0
    2.9958   -1.3458    0.0000 N   0  0  0  0  0  0  0  0  0  0  0  0
   -0.5750   -1.7708    0.0000 C   0  0  0  0  0  0  0  0  0  0  0  0
   -2.0000   -0.1208    0.0000 O   0  0  0  0  0  0  0  0  0  0  0  0
   -0.5792    0.7083    0.0000 O   0  0  0  0  0  0  0  0  0  0  0  0
    1.2125    1.6250    0.0000 Cl  0  0  0  0  0  0  0  0  0  0  0  0
    2.9917   -2.4000    0.0000 Cl  0  0  0  0  0  0  0  0  0  0  0  0
   -2.0042   -1.7708    0.0000 O   0  0  0  0  0  0  0  0  0  0  0  0
    1.5708   -1.3500    0.0000 C   0  0  0  0  0  0  0  0  0  0  0  0
    2.2792   -0.1083    0.0000 C   0  0  0  0  0  0  0  0  0  0  0  0
    2.9958   -0.5208    0.0000 C   0  0  0  0  0  0  0  0  0  0  0  0
    2.2833   -1.7583    0.0000 C   0  0  0  0  0  0  0  0  0  0  0  0
   -2.0000    0.7042    0.0000 C   0  0  0  0  0  0  0  0  0  0  0  0
    0.1375    1.1208    0.0000 C   0  0  0  0  0  0  0  0  0  0  0  0
   -2.7167   -1.3583    0.0000 C   0  0  0  0  0  0  0  0  0  0  0  0
  2  3  1  0
  3  1  2  0
  4  5  1  0
  5  2  1  0
  6  1  1  0
  7  2  2  0
  8 17  1  0
  9  6  2  0
 10  1  1  0
 11  3  1  0
 14  6  1  0
 15  4  1  0
 16  4  1  0
 17 16  1  0
 18 15  1  0
 19 10  1  0
 20 11  1  0
 21 14  1  0
  7  9  1  0
  8 18  1  0
M  END
>  <ID>  (1296) 


>  <MOLENAME>  (1296) 
TRIMETAZIDINE DIHYDROCHLORIDE

>  <therap>  (1296) 
anti-anginal

>  <ref>  (1296) 
Circ Res 86:580 (2000); Am J Cardiovasc Drugs 3:361 (2003); Circulation 118:1250 (2008)

>  <cas#>  (1296) 
5011-34-7

>  <source>  (1296) 
synthetic; 400045

>  <status>  (1296) 
INN, BAN, JAN

>  <tradename>  (1296) 
nan

>  <SMILES>  (1296) 
COc1ccc(CN2CCNCC2)c(OC)c1OC

>  <standardized_failed>  (1296) 
False

$$$$

     RDKit          2D

 17 17  0  0  0  0  0  0  0  0999 V2000
    6.0750   -1.8625    0.0000 S   0  0  0  0  0  0  0  0  0  0  0  0
    6.0667   -1.0375    0.0000 C   0  0  0  0  0  0  0  0  0  0  0  0
    6.7875   -0.6167    0.0000 C   0  0  0  0  0  0  0  0  0  0  0  0
    6.7875    0.2083    0.0000 C   0  0  0  0  0  0  0  0  0  0  0  0
    6.0667    0.6208    0.0000 C   0  0  0  0  0  0  0  0  0  0  0  0
    5.3542   -0.6250    0.0000 C   0  0  0  0  0  0  0  0  0  0  0  0
    5.3542    0.2000    0.0000 C   0  0  0  0  0  0  0  0  0  0  0  0
    6.0667   -2.6875    0.0000 O   0  0  0  0  0  0  0  0  0  0  0  0
    6.9000   -1.8625    0.0000 O   0  0  0  0  0  0  0  0  0  0  0  0
    5.2500   -1.8625    0.0000 O   0  0  0  0  0  0  0  0  0  0  0  0
    7.4917    0.6208    0.0000 N   0  0  0  0  0  0  0  0  0  0  0  0
    6.0667    1.4458    0.0000 O   0  0  0  0  0  0  0  0  0  0  0  0
    4.6417    0.6125    0.0000 I   0  0  0  0  0  0  0  0  0  0  0  0
    7.5042   -1.0292    0.0000 C   0  0  0  0  0  0  0  0  0  0  0  0
    8.7000   -1.8667    0.0000 Na  0  0  0  0  0 15  0  0  0  0  0  0
    8.2125    0.2125    0.0000 C   0  0  0  0  0  0  0  0  0  0  0  0
    8.2167   -0.6167    0.0000 C   0  0  0  0  0  0  0  0  0  0  0  0
  2  1  1  0
  3  2  2  0
  4  3  1  0
  5  7  1  0
  6  2  1  0
  7  6  2  0
  8  1  1  0
  9  1  2  0
 10  1  2  0
 11  4  1  0
 12  5  1  0
 13  7  1  0
 14  3  1  0
 16 17  1  0
 17 14  2  0
  4  5  2  0
 16 11  2  0
M  CHG  2   8  -1  15   1
M  END
>  <ID>  (1297) 


>  <MOLENAME>  (1297) 
CHINIOFON

>  <therap>  (1297) 
antiprotozoal, amebicide

>  <ref>  (1297) 
Cal West Med 37:405 (1932); J Pharmacol. Exper Ther 45:273 (1932).

>  <cas#>  (1297) 
8002-90-2

>  <source>  (1297) 
synthetic

>  <status>  (1297) 
 INN, DCF, NF-XI

>  <tradename>  (1297) 
YATREN

>  <SMILES>  (1297) 
O=S(=O)(O)c1c2cccnc2c(O)c(I)c1

>  <standardized_failed>  (1297) 
False

$$$$

     RDKit          2D

 14 15  0  0  0  0  0  0  0  0999 V2000
    3.3000   -0.4167    0.0000 N   0  0  0  0  0  0  0  0  0  0  0  0
    3.3042   -1.2417    0.0000 C   0  0  0  0  0  0  0  0  0  0  0  0
    4.0208   -1.6542    0.0000 C   0  0  0  0  0  0  0  0  0  0  0  0
    4.0208   -2.4792    0.0000 C   0  0  0  0  0  0  0  0  0  0  0  0
    2.5917   -1.6542    0.0000 C   0  0  0  0  0  0  0  0  0  0  0  0
    4.0167   -0.0000    0.0000 O   0  0  0  0  0  0  0  0  0  0  0  0
    4.7375   -2.8917    0.0000 N   0  0  0  0  0  0  0  0  0  0  0  0
    2.5875   -0.0042    0.0000 O   0  0  0  0  0  0  0  0  0  0  0  0
    3.3042   -2.8958    0.0000 C   0  0  0  0  0  0  0  0  0  0  0  0
    2.5917   -2.4833    0.0000 C   0  0  0  0  0  0  0  0  0  0  0  0
    3.3083   -3.7208    0.0000 O   0  0  0  0  0  0  0  0  0  0  0  0
    4.7292   -1.2375    0.0000 C   0  0  0  0  0  0  0  0  0  0  0  0
    5.4500   -2.4750    0.0000 C   0  0  0  0  0  0  0  0  0  0  0  0
    5.4458   -1.6458    0.0000 C   0  0  0  0  0  0  0  0  0  0  0  0
  2  1  1  0
  3  2  2  0
  4  3  1  0
  5  2  1  0
  6  1  1  0
  7  4  1  0
  8  1  2  0
  9 10  1  0
 10  5  2  0
 11  9  1  0
 12  3  1  0
 13  7  2  0
 14 12  2  0
  4  9  2  0
 14 13  1  0
M  CHG  2   1   1   6  -1
M  END
>  <ID>  (1298) 


>  <MOLENAME>  (1298) 
NITROXOLINE

>  <therap>  (1298) 
antibacterial

>  <ref>  (1298) 
J Clin Pharmacol Biopharm 17:475 (1979); Pathol Biol 35:879 (1987)

>  <cas#>  (1298) 
4008-48-4

>  <source>  (1298) 
syntrhetic

>  <status>  (1298) 
INN, BAN

>  <tradename>  (1298) 
ENTEROCOL

>  <SMILES>  (1298) 
O=[N+]([O-])c1c2cccnc2c(O)cc1

>  <standardized_failed>  (1298) 
False

$$$$

     RDKit          2D

 24 27  0  0  0  0  0  0  0  0999 V2000
    5.2417   -4.5292    0.0000 C   0  0  0  0  0  0  0  0  0  0  0  0
    7.4167   -3.2792    0.0000 C   0  0  0  0  0  0  0  0  0  0  0  0
    5.2417   -5.3625    0.0000 C   0  0  0  0  0  0  0  0  0  0  0  0
    5.9750   -4.1042    0.0000 C   0  0  0  0  0  0  0  0  0  0  0  0
    7.4167   -4.1042    0.0000 C   0  0  0  0  0  0  0  0  0  0  0  0
    6.6917   -4.5292    0.0000 C   0  0  0  0  0  0  0  0  0  0  0  0
    5.9750   -5.7917    0.0000 C   0  0  0  0  0  0  0  0  0  0  0  0
    8.2167   -3.0042    0.0000 C   0  0  0  0  0  0  0  0  0  0  0  0
    6.6917   -2.8417    0.0000 C   0  0  0  0  0  0  0  0  0  0  0  0
    6.6917   -5.3625    0.0000 C   0  0  0  0  0  0  0  0  0  0  0  0
    5.9750   -3.2792    0.0000 C   0  0  0  0  0  0  0  0  0  0  0  0
    4.5167   -4.1042    0.0000 C   0  0  0  0  0  0  0  0  0  0  0  0
    8.2167   -4.3542    0.0000 C   0  0  0  0  0  0  0  0  0  0  0  0
    4.5167   -5.7917    0.0000 C   0  0  0  0  0  0  0  0  0  0  0  0
    2.3667   -5.3500    0.0000 C   0  0  0  0  0  0  0  0  0  0  0  0
    8.6917   -3.7042    0.0000 C   0  0  0  0  0  0  0  0  0  0  0  0
    3.0750   -5.7667    0.0000 O   0  0  0  0  0  0  0  0  0  0  0  0
    8.4750   -2.2250    0.0000 O   0  0  0  0  0  0  0  0  0  0  0  0
    3.7917   -5.3542    0.0000 C   0  0  0  0  0  0  0  0  0  0  0  0
    2.3667   -4.5250    0.0000 O   0  0  0  0  0  0  0  0  0  0  0  0
    3.7917   -4.5292    0.0000 C   0  0  0  0  0  0  0  0  0  0  0  0
    5.2417   -3.7042    0.0000 C   0  0  0  0  0  0  0  0  0  0  0  0
    7.4125   -2.4750    0.0000 C   0  0  0  0  0  0  0  0  0  0  0  0
    1.6417   -5.7542    0.0000 C   0  0  0  0  0  0  0  0  0  0  0  0
  2  9  1  0
  3  1  1  0
  4  1  1  0
  5  6  1  0
  6  4  1  0
  7  3  2  0
  8  2  1  0
  9 11  1  0
 10  6  1  0
 11  4  1  0
 12  1  1  0
 13  5  1  0
 14  3  1  0
 15 17  1  0
 16 13  1  0
 19 17  1  1
 18  8  2  0
 19 21  1  0
 20 15  2  0
 21 12  1  0
  1 22  1  1
  2 23  1  1
 24 15  1  0
 19 14  1  0
 10  7  1  0
  2  5  1  0
  8 16  1  0
M  END
>  <ID>  (1299) 


>  <MOLENAME>  (1299) 
PRASTERONE ACETATE

>  <therap>  (1299) 
adrenocortical hormone, antidepressant

>  <ref>  (1299) 
Ann Pharmacother 34:1419 (2000); Lupus 19:10 1229 (2010)

>  <cas#>  (1299) 
53-43-0 (praesterone)

>  <source>  (1299) 
semisynthetic

>  <status>  (1299) 
INN

>  <tradename>  (1299) 
nan

>  <SMILES>  (1299) 
CC(=O)O[C@H]1CC[C@@]2(C)C(=CCC3C4CCC(=O)[C@@]4(C)CCC32)C1

>  <standardized_failed>  (1299) 
False

$$$$

     RDKit          2D

 14 14  0  0  0  0  0  0  0  0999 V2000
    5.7042   -0.8667    0.0000 C   0  0  0  0  0  0  0  0  0  0  0  0
    1.6000    0.5583    0.0000 C   0  0  0  0  0  0  0  0  0  0  0  0
    5.2917   -0.1542    0.0000 N   0  0  0  0  0  0  0  0  0  0  0  0
    2.0042   -0.1542    0.0000 O   0  0  0  0  0  0  0  0  0  0  0  0
    5.2917   -1.5792    0.0000 O   0  0  0  0  0  0  0  0  0  0  0  0
    2.0083    1.2708    0.0000 O   0  0  0  0  0  0  0  0  0  0  0  0
    4.4750   -0.1542    0.0000 C   0  0  0  0  0  0  0  0  0  0  0  0
    2.8292   -0.1542    0.0000 C   0  0  0  0  0  0  0  0  0  0  0  0
    4.0625    0.5583    0.0000 C   0  0  0  0  0  0  0  0  0  0  0  0
    4.0625   -0.8667    0.0000 C   0  0  0  0  0  0  0  0  0  0  0  0
    3.2375    0.5583    0.0000 C   0  0  0  0  0  0  0  0  0  0  0  0
    3.2375   -0.8667    0.0000 C   0  0  0  0  0  0  0  0  0  0  0  0
    6.5292   -0.8667    0.0000 C   0  0  0  0  0  0  0  0  0  0  0  0
    0.7792    0.5583    0.0000 C   0  0  0  0  0  0  0  0  0  0  0  0
  2  4  1  0
  3  1  1  0
  4  8  1  0
  5  1  2  0
  6  2  2  0
  7  3  1  0
  8 12  1  0
  9  7  2  0
 10  7  1  0
 11  9  1  0
 12 10  2  0
 13  1  1  0
 14  2  1  0
 11  8  2  0
M  END
>  <ID>  (1300) 


>  <MOLENAME>  (1300) 
DIACETAMATE

>  <therap>  (1300) 
analgesic, antiinflammatory

>  <ref>  (1300) 
Eur. J. Pharmacol. (1977), 42(4), 347-54; J. Pharm. Sci. (1968), 57(5), 774-80

>  <cas#>  (1300) 
2623-33-8

>  <source>  (1300) 
synthetic

>  <status>  (1300) 
INN, BAN

>  <tradename>  (1300) 
nan

>  <SMILES>  (1300) 
CC(=O)Nc1ccc(OC(C)=O)cc1

>  <standardized_failed>  (1300) 
False

$$$$

     RDKit          2D

 54 57  0  0  0  0  0  0  0  0999 V2000
    5.7542   -2.1792    0.0000 C   0  0  0  0  0  0  0  0  0  0  0  0
    7.1917   -2.2167    0.0000 C   0  0  0  0  0  0  0  0  0  0  0  0
    6.4792   -1.7792    0.0000 O   0  0  0  0  0  0  0  0  0  0  0  0
    5.0542   -2.5250    0.0000 O   0  0  0  0  0  0  0  0  0  0  0  0
    1.4792   -3.6917    0.0000 O   0  0  0  0  0  0  0  0  0  0  0  0
    2.9167   -2.0667    0.0000 C   0  0  0  0  0  0  0  0  0  0  0  0
    4.3500   -2.0917    0.0000 C   0  0  0  0  0  0  0  0  0  0  0  0
    7.9875   -2.4292    0.0000 O   0  0  0  0  0  0  0  0  0  0  0  0
    0.7667   -3.2792    0.0000 C   0  0  0  0  0  0  0  0  0  0  0  0
    3.6292   -2.4917    0.0000 C   0  0  0  0  0  0  0  0  0  0  0  0
    2.2042   -2.4667    0.0000 C   0  0  0  0  0  0  0  0  0  0  0  0
    0.7667   -2.4542    0.0000 C   0  0  0  0  0  0  0  0  0  0  0  0
    8.4292   -1.7375    0.0000 C   0  0  0  0  0  0  0  0  0  0  0  0
    1.4917   -2.0500    0.0000 C   0  0  0  0  0  0  0  0  0  0  0  0
    9.7042   -2.3792    0.0000 O   0  0  0  0  0  0  0  0  0  0  0  0
    1.4792   -4.5167    0.0000 C   0  0  0  0  0  0  0  0  0  0  0  0
    2.1917   -4.9292    0.0000 C   0  0  0  0  0  0  0  0  0  0  0  0
    5.7417   -3.0042    0.0000 C   0  0  0  0  0  0  0  0  0  0  0  0
    2.1917   -5.7542    0.0000 C   0  0  0  0  0  0  0  0  0  0  0  0
    9.2542   -1.6917    0.0000 C   0  0  0  0  0  0  0  0  0  0  0  0
    4.3625   -1.2667    0.0000 C   0  0  0  0  0  0  0  0  0  0  0  0
    5.7917   -1.3042    0.0000 C   0  0  0  0  0  0  0  0  0  0  0  0
    6.4417   -3.4292    0.0000 C   0  0  0  0  0  0  0  0  0  0  0  0
   10.8917   -1.6042    0.0000 C   0  0  0  0  0  0  0  0  0  0  0  0
   10.5167   -2.3417    0.0000 C   0  0  0  0  0  0  0  0  0  0  0  0
    7.1667   -3.0417    0.0000 C   0  0  0  0  0  0  0  0  0  0  0  0
    5.0875   -0.8750    0.0000 C   0  0  0  0  0  0  0  0  0  0  0  0
    7.1417   -1.3917    0.0000 C   0  0  0  0  0  0  0  0  0  0  0  0
    2.9167   -1.2417    0.0000 O   0  0  0  0  0  0  0  0  0  0  0  0
    2.9042   -6.1667    0.0000 O   0  0  0  0  0  0  0  0  0  0  0  0
    7.9167   -1.0917    0.0000 C   0  0  0  0  0  0  0  0  0  0  0  0
    0.0542   -3.6917    0.0000 C   0  0  0  0  0  0  0  0  0  0  0  0
    1.4792   -6.1667    0.0000 O   0  0  0  0  0  0  0  0  0  0  0  0
    0.7667   -4.9292    0.0000 C   0  0  0  0  0  0  0  0  0  0  0  0
   10.4542   -0.9167    0.0000 C   0  0  0  0  0  0  0  0  0  0  0  0
    9.6250   -0.9542    0.0000 C   0  0  0  0  0  0  0  0  0  0  0  0
    0.0542   -4.5167    0.0000 C   0  0  0  0  0  0  0  0  0  0  0  0
    1.4875   -1.2250    0.0000 O   0  0  0  0  0  0  0  0  0  0  0  0
   11.6125   -2.0167    0.0000 O   0  0  0  0  0  0  0  0  0  0  0  0
    7.8792   -3.4542    0.0000 O   0  0  0  0  0  0  0  0  0  0  0  0
    3.6125   -3.3167    0.0000 C   0  0  0  0  0  0  0  0  0  0  0  0
    2.1875   -3.2917    0.0000 C   0  0  0  0  0  0  0  0  0  0  0  0
    0.0542   -2.0417    0.0000 C   0  0  0  0  0  0  0  0  0  0  0  0
    4.6417   -5.9667    0.0000 Na  0  0  0  0  0 15  0  0  0  0  0  0
    2.9042   -4.5167    0.0000 C   0  0  0  0  0  0  0  0  0  0  0  0
    8.6417   -2.5292    0.0000 C   0  0  0  0  0  0  0  0  0  0  0  0
   11.3042   -0.8917    0.0000 C   0  0  0  0  0  0  0  0  0  0  0  0
    3.6417   -0.8542    0.0000 C   0  0  0  0  0  0  0  0  0  0  0  0
    6.5042   -0.8875    0.0000 C   0  0  0  0  0  0  0  0  0  0  0  0
   10.9292   -3.0542    0.0000 C   0  0  0  0  0  0  0  0  0  0  0  0
   -0.6583   -3.2792    0.0000 C   0  0  0  0  0  0  0  0  0  0  0  0
    2.8917   -3.7167    0.0000 C   0  0  0  0  0  0  0  0  0  0  0  0
    3.6250   -4.9292    0.0000 C   0  0  0  0  0  0  0  0  0  0  0  0
   12.1292   -0.8917    0.0000 C   0  0  0  0  0  0  0  0  0  0  0  0
  2  3  1  0
  3  1  1  0
  4  1  1  0
  9  5  1  6
  6 10  1  0
  7  4  1  6
  2  8  1  0
  9 12  1  0
  7 10  1  0
 11  6  1  0
 12 14  1  0
 13  8  1  0
 14 11  1  0
 15 20  1  0
 16  5  1  0
 16 17  1  0
 18  1  1  0
 17 19  1  0
 20 13  1  0
 21 27  1  0
 22  1  1  0
 23 18  2  0
 24 35  1  0
 25 15  1  0
 26 23  1  0
 27 22  1  0
  2 28  1  1
 29  6  2  0
 30 19  1  0
 31 28  1  0
 32  9  1  0
 33 19  2  0
 34 37  1  0
 35 36  1  0
 20 36  1  1
 37 32  1  0
 14 38  1  6
 24 39  1  1
 26 40  1  6
 10 41  1  1
 11 42  1  1
 12 43  1  1
 17 45  1  1
 13 46  1  6
 24 47  1  0
 21 48  1  1
 22 49  1  1
 25 50  1  6
 32 51  1  6
 52 41  1  0
 53 45  1  0
 54 47  1  0
 21  7  1  0
  2 26  1  0
 31 13  1  0
 24 25  1  0
 16 34  1  1
M  CHG  2  30  -1  44   1
M  END
>  <ID>  (1301) 


>  <MOLENAME>  (1301) 
SALINOMYCIN. SODIUM

>  <therap>  (1301) 
antibacterial

>  <ref>  (1301) 
J Antibiotics 27: 814 (1954)

>  <cas#>  (1301) 
53003-10-4

>  <source>  (1301) 
Streptomyces albus

>  <status>  (1301) 
INN, BAN

>  <tradename>  (1301) 
KOKCISAN

>  <SMILES>  (1301) 
CC[C@@H](C(=O)[C@@H](C)[C@@H](O)[C@H](C)[C@@H]1O[C@@H]([C@@H](CC)C(=O)O)CC[C@@H]1C)[C@H]1OC2(C=C[C@@H](O)[C@]3(CC[C@@](C)([C@H]4CC[C@](O)(CC)[C@H](C)O4)O3)O2)[C@H](C)C[C@@H]1C

>  <standardized_failed>  (1301) 
False

$$$$

     RDKit          2D

 21 19  0  0  0  0  0  0  0  0999 V2000
   -2.5083   -0.9542    0.0000 N   0  0  0  0  0  0  0  0  0  0  0  0
   -1.6000    0.5625    0.0000 Br  0  0  0  0  0  0  0  0  0  0  0  0
   -1.7958   -1.3667    0.0000 C   0  0  0  0  0  0  0  0  0  0  0  0
   -3.2208   -0.5500    0.0000 C   0  0  0  0  0  0  0  0  0  0  0  0
   -3.2208   -1.3667    0.0000 C   0  0  0  0  0  0  0  0  0  0  0  0
   -2.5125   -0.1292    0.0000 C   0  0  0  0  0  0  0  0  0  0  0  0
   -1.0833   -0.9542    0.0000 C   0  0  0  0  0  0  0  0  0  0  0  0
    8.1792   -1.3375    0.0000 C   0  0  0  0  0  0  0  0  0  0  0  0
    7.4667   -0.9292    0.0000 C   0  0  0  0  0  0  0  0  0  0  0  0
    6.7542   -1.3417    0.0000 C   0  0  0  0  0  0  0  0  0  0  0  0
   -0.3708   -1.3625    0.0000 C   0  0  0  0  0  0  0  0  0  0  0  0
    0.3417   -0.9500    0.0000 C   0  0  0  0  0  0  0  0  0  0  0  0
    1.0542   -1.3542    0.0000 C   0  0  0  0  0  0  0  0  0  0  0  0
    1.7667   -0.9417    0.0000 C   0  0  0  0  0  0  0  0  0  0  0  0
    2.4792   -1.3542    0.0000 C   0  0  0  0  0  0  0  0  0  0  0  0
    3.1917   -0.9417    0.0000 C   0  0  0  0  0  0  0  0  0  0  0  0
    3.9042   -1.3500    0.0000 C   0  0  0  0  0  0  0  0  0  0  0  0
    4.6167   -0.9375    0.0000 C   0  0  0  0  0  0  0  0  0  0  0  0
    5.3292   -1.3417    0.0000 C   0  0  0  0  0  0  0  0  0  0  0  0
    6.0417   -0.9292    0.0000 C   0  0  0  0  0  0  0  0  0  0  0  0
    8.8917   -0.9250    0.0000 C   0  0  0  0  0  0  0  0  0  0  0  0
  3  1  1  0
  4  1  1  0
  5  1  1  0
  6  1  1  0
  7  3  1  0
  8  9  1  0
  9 10  1  0
 10 20  1  0
 11  7  1  0
 12 11  1  0
 13 12  1  0
 14 13  1  0
 15 14  1  0
 16 15  1  0
 17 16  1  0
 18 17  1  0
 19 18  1  0
 20 19  1  0
 21  8  1  0
M  CHG  2   1   1   2  -1
M  END
>  <ID>  (1302) 


>  <MOLENAME>  (1302) 
CETRIMONIUM BROMIDE

>  <therap>  (1302) 
antiinfectant

>  <ref>  (1302) 
Acta Pharmacol Toxicol 47:17 (1980)

>  <cas#>  (1302) 
57-09-0, 6899-10-1 [cetrimonium]

>  <source>  (1302) 
synthetic

>  <status>  (1302) 
NF, INN, BAN

>  <tradename>  (1302) 
CETAB

>  <SMILES>  (1302) 
CCCCCCCCCCCCCCCC[N+](C)(C)C

>  <standardized_failed>  (1302) 
False

$$$$

     RDKit          2D

 36 37  0  0  0  0  0  0  0  0999 V2000
    5.6292   -4.4167    0.0000 C   0  0  0  0  0  0  0  0  0  0  0  0
    5.6292   -2.1667    0.0000 C   0  0  0  0  0  0  0  0  0  0  0  0
    4.1417   -5.2167    0.0000 C   0  0  0  0  0  0  0  0  0  0  0  0
    6.0417   -3.7042    0.0000 C   0  0  0  0  0  0  0  0  0  0  0  0
    4.9125   -1.7542    0.0000 C   0  0  0  0  0  0  0  0  0  0  0  0
    9.1042   -2.0292    0.0000 S   0  0  0  0  0  0  0  0  0  0  0  0
    4.4667   -5.9792    0.0000 C   0  0  0  0  0  0  0  0  0  0  0  0
    4.9125   -0.9292    0.0000 C   0  0  0  0  0  0  0  0  0  0  0  0
    4.5542   -4.5042    0.0000 O   0  0  0  0  0  0  0  0  0  0  0  0
    3.3167   -5.3000    0.0000 O   0  0  0  0  0  0  0  0  0  0  0  0
    6.3417   -1.7500    0.0000 O   0  0  0  0  0  0  0  0  0  0  0  0
    5.6375   -2.9917    0.0000 O   0  0  0  0  0  0  0  0  0  0  0  0
    3.8500   -6.5292    0.0000 C   0  0  0  0  0  0  0  0  0  0  0  0
    6.0292   -5.1375    0.0000 C   0  0  0  0  0  0  0  0  0  0  0  0
    5.6250   -0.5125    0.0000 C   0  0  0  0  0  0  0  0  0  0  0  0
    6.3417   -0.9250    0.0000 C   0  0  0  0  0  0  0  0  0  0  0  0
    3.1375   -6.1042    0.0000 C   0  0  0  0  0  0  0  0  0  0  0  0
    6.8667   -3.7167    0.0000 C   0  0  0  0  0  0  0  0  0  0  0  0
    6.8542   -5.1417    0.0000 C   0  0  0  0  0  0  0  0  0  0  0  0
    7.2750   -4.4375    0.0000 C   0  0  0  0  0  0  0  0  0  0  0  0
    9.1000   -1.3417    0.0000 O   0  0  0  0  0  0  0  0  0  0  0  0
    9.7875   -2.0292    0.0000 O   0  0  0  0  0  0  0  0  0  0  0  0
    4.2000   -2.1750    0.0000 N   0  0  0  0  0  0  0  0  0  0  0  0
    9.1000   -2.7167    0.0000 O   0  0  0  0  0  0  0  0  0  0  0  0
    8.4167   -2.0292    0.0000 O   0  0  0  0  0  0  0  0  0  0  0  0
    5.2125   -5.9750    0.0000 O   0  0  0  0  0  0  0  0  0  0  0  0
    4.1917   -0.5167    0.0000 O   0  0  0  0  0  0  0  0  0  0  0  0
    7.2917   -3.0042    0.0000 N   0  0  0  0  0  0  0  0  0  0  0  0
    7.2542   -5.8667    0.0000 N   0  0  0  0  0  0  0  0  0  0  0  0
    3.9250   -7.3500    0.0000 O   0  0  0  0  0  0  0  0  0  0  0  0
    6.0167   -5.8792    0.0000 O   0  0  0  0  0  0  0  0  0  0  0  0
    5.6250    0.3125    0.0000 O   0  0  0  0  0  0  0  0  0  0  0  0
    7.0542   -0.5125    0.0000 C   0  0  0  0  0  0  0  0  0  0  0  0
    2.3792   -6.4375    0.0000 C   0  0  0  0  0  0  0  0  0  0  0  0
    7.7667   -0.9167    0.0000 N   0  0  0  0  0  0  0  0  0  0  0  0
    1.7167   -5.9417    0.0000 O   0  0  0  0  0  0  0  0  0  0  0  0
  2 12  1  6
  3  9  1  1
  4  1  1  0
  5  2  1  0
  7  3  1  0
  8  5  1  0
  9  1  1  0
 10  3  1  0
 11  2  1  0
  4 12  1  6
 13  7  1  0
 14  1  1  0
 15 16  1  0
 16 11  1  0
 17 10  1  0
 18  4  1  0
 19 14  1  0
 20 18  1  0
 21  6  2  0
 22  6  2  0
  5 23  1  6
 24  6  1  0
 25  6  1  0
  7 26  1  6
  8 27  1  1
 18 28  1  1
 19 29  1  1
 13 30  1  6
 14 31  1  6
 15 32  1  6
 16 33  1  1
 17 34  1  1
 35 33  1  0
 36 34  1  0
 19 20  1  0
 17 13  1  0
  8 15  1  0
M  END
>  <ID>  (1303) 


>  <MOLENAME>  (1303) 
RIBOSTAMYCIN SULFATE

>  <therap>  (1303) 
antibacterial

>  <ref>  (1303) 
Arzneim Forsch 26:184 (1976)

>  <cas#>  (1303) 
25546-65-0

>  <source>  (1303) 
Streptomyces ribosidificus; SF-733

>  <status>  (1303) 
INN, BAN, JAN

>  <tradename>  (1303) 
IBISTACIN

>  <SMILES>  (1303) 
NC[C@H]1O[C@H](O[C@H]2C(O[C@@H]3O[C@H](CO)[C@@H](O)[C@H]3O)[C@@H](O)[C@H](N)C[C@@H]2N)[C@H](N)[C@@H](O)[C@@H]1O

>  <standardized_failed>  (1303) 
False

$$$$

     RDKit          2D

 21 24  0  0  0  0  0  0  0  0999 V2000
    1.3208   -1.4917    0.0000 C   0  0  0  0  0  0  0  0  0  0  0  0
    3.4792   -0.2708    0.0000 C   0  0  0  0  0  0  0  0  0  0  0  0
    1.3167   -2.3167    0.0000 C   0  0  0  0  0  0  0  0  0  0  0  0
    2.0333   -1.0833    0.0000 C   0  0  0  0  0  0  0  0  0  0  0  0
    3.4625   -1.1000    0.0000 C   0  0  0  0  0  0  0  0  0  0  0  0
    2.7458   -1.5042    0.0000 C   0  0  0  0  0  0  0  0  0  0  0  0
    2.0292   -2.7333    0.0000 C   0  0  0  0  0  0  0  0  0  0  0  0
    4.2667   -0.0292    0.0000 C   0  0  0  0  0  0  0  0  0  0  0  0
    2.7667    0.1500    0.0000 C   0  0  0  0  0  0  0  0  0  0  0  0
    2.7458   -2.3250    0.0000 C   0  0  0  0  0  0  0  0  0  0  0  0
    2.0417   -0.2542    0.0000 C   0  0  0  0  0  0  0  0  0  0  0  0
    0.6083   -1.0792    0.0000 C   0  0  0  0  0  0  0  0  0  0  0  0
    4.2458   -1.3667    0.0000 C   0  0  0  0  0  0  0  0  0  0  0  0
    0.6083   -2.7292    0.0000 C   0  0  0  0  0  0  0  0  0  0  0  0
    4.7417   -0.7042    0.0000 C   0  0  0  0  0  0  0  0  0  0  0  0
    4.5375    0.7500    0.0000 O   0  0  0  0  0  0  0  0  0  0  0  0
   -0.1000   -1.4917    0.0000 C   0  0  0  0  0  0  0  0  0  0  0  0
   -0.1000   -2.3167    0.0000 C   0  0  0  0  0  0  0  0  0  0  0  0
    1.3167   -0.6667    0.0000 C   0  0  0  0  0  0  0  0  0  0  0  0
    3.4750    0.5583    0.0000 C   0  0  0  0  0  0  0  0  0  0  0  0
   -0.8167   -2.7333    0.0000 O   0  0  0  0  0  0  0  0  0  0  0  0
  2  5  1  0
  3  1  1  0
  4  1  1  0
  5  6  1  0
  6  4  1  0
  7  3  2  0
  8  2  1  0
  9 11  1  0
 10  6  1  0
 11  4  1  0
 12  1  1  0
  5 13  1  1
 14  3  1  0
 15 13  1  0
 16  8  2  0
 17 12  1  0
 18 14  1  0
  1 19  1  1
  2 20  1  1
 18 21  1  1
 10  7  1  0
  9  2  1  0
 18 17  1  0
  8 15  1  0
M  END
>  <ID>  (1304) 


>  <MOLENAME>  (1304) 
PRASTERONE

>  <therap>  (1304) 
androgen, estrogen, treatment of menopausal syndrome

>  <ref>  (1304) 
Lancet 343:1479 (1994)

>  <cas#>  (1304) 
53-43-0

>  <source>  (1304) 
adrenal glands, male urine

>  <status>  (1304) 
INN

>  <tradename>  (1304) 
nan

>  <SMILES>  (1304) 
C[C@]12CCC3C(CC=C4C[C@@H](O)CC[C@@]43C)[C@@H]1CCC2=O

>  <standardized_failed>  (1304) 
False

$$$$

     RDKit          2D

 27 26  0  0  0  0  0  0  0  0999 V2000
    8.3417   -3.9500    0.0000 P   0  0  0  0  0  0  0  0  0  0  0  0
    8.3375   -4.7750    0.0000 O   0  0  0  0  0  0  0  0  0  0  0  0
    8.3292   -3.0792    0.0000 O   0  0  0  0  0  0  0  0  0  0  0  0
   11.2875   -3.5125    0.0000 N   0  0  0  0  0  0  0  0  0  0  0  0
    9.1500   -3.9250    0.0000 O   0  0  0  0  0  0  0  0  0  0  0  0
    7.3417   -3.9542    0.0000 O   0  0  0  0  0  0  0  0  0  0  0  0
    9.8625   -3.5125    0.0000 C   0  0  0  0  0  0  0  0  0  0  0  0
   10.5750   -3.9250    0.0000 C   0  0  0  0  0  0  0  0  0  0  0  0
   12.0000   -3.0917    0.0000 C   0  0  0  0  0  0  0  0  0  0  0  0
   12.0000   -3.9250    0.0000 C   0  0  0  0  0  0  0  0  0  0  0  0
   11.2875   -2.6875    0.0000 C   0  0  0  0  0  0  0  0  0  0  0  0
    6.6292   -3.5417    0.0000 C   0  0  0  0  0  0  0  0  0  0  0  0
    5.9167   -3.9542    0.0000 C   0  0  0  0  0  0  0  0  0  0  0  0
    1.6417   -2.3042    0.0000 C   0  0  0  0  0  0  0  0  0  0  0  0
    0.9292   -2.7167    0.0000 C   0  0  0  0  0  0  0  0  0  0  0  0
    3.7792   -3.5417    0.0000 C   0  0  0  0  0  0  0  0  0  0  0  0
    4.4917   -3.9542    0.0000 C   0  0  0  0  0  0  0  0  0  0  0  0
    5.2042   -3.5417    0.0000 C   0  0  0  0  0  0  0  0  0  0  0  0
   -0.4958   -3.5417    0.0000 C   0  0  0  0  0  0  0  0  0  0  0  0
    0.2167   -3.9542    0.0000 C   0  0  0  0  0  0  0  0  0  0  0  0
    0.9292   -3.5417    0.0000 C   0  0  0  0  0  0  0  0  0  0  0  0
    1.6417   -3.9542    0.0000 C   0  0  0  0  0  0  0  0  0  0  0  0
   -0.4958   -2.7167    0.0000 C   0  0  0  0  0  0  0  0  0  0  0  0
    0.2167   -2.3042    0.0000 C   0  0  0  0  0  0  0  0  0  0  0  0
    2.3542   -3.5417    0.0000 C   0  0  0  0  0  0  0  0  0  0  0  0
    3.0667   -3.9542    0.0000 C   0  0  0  0  0  0  0  0  0  0  0  0
    2.3542   -2.7125    0.0000 C   0  0  0  0  0  0  0  0  0  0  0  0
  2  1  1  0
  3  1  2  0
  4  8  1  0
  5  1  1  0
  6  1  1  0
  7  5  1  0
  8  7  1  0
  9  4  1  0
 10  4  1  0
 11  4  1  0
 12  6  1  0
 13 12  1  0
 14 15  1  0
 15 24  1  0
 16 17  1  0
 17 18  1  0
 18 13  1  0
 19 20  1  0
 20 21  1  0
 21 22  1  0
 22 25  1  0
 23 19  1  0
 24 23  1  0
 25 26  1  0
 26 16  1  0
 27 14  1  0
M  CHG  2   2  -1   4   1
M  END
>  <ID>  (1305) 


>  <MOLENAME>  (1305) 
MILTEFOSINE

>  <therap>  (1305) 
antineoplastic

>  <ref>  (1305) 
Cancer Treat Rev 17:233, 243 (1990); N Engl J Med 347:1739 (2002)

>  <cas#>  (1305) 
58066-85-6

>  <source>  (1305) 
synthetic; D-18506, HDPC

>  <status>  (1305) 
INN, BAN

>  <tradename>  (1305) 
MILTEX

>  <SMILES>  (1305) 
CCCCCCCCCCCCCCCCOP(=O)([O-])OCC[N+](C)(C)C

>  <standardized_failed>  (1305) 
False

$$$$

     RDKit          2D

 25 26  0  0  0  0  0  0  0  0999 V2000
   13.5792   -4.0375    0.0000 S   0  0  0  0  0  0  0  0  0  0  0  0
   14.3292   -4.0375    0.0000 N   0  0  0  0  0  0  0  0  0  0  0  0
   10.2042   -4.6792    0.0000 C   0  0  0  0  0  0  0  0  0  0  0  0
    9.4542   -4.6792    0.0000 C   0  0  0  0  0  0  0  0  0  0  0  0
    9.0792   -5.3292    0.0000 C   0  0  0  0  0  0  0  0  0  0  0  0
    9.4542   -5.9792    0.0000 C   0  0  0  0  0  0  0  0  0  0  0  0
   12.8292   -4.0375    0.0000 C   0  0  0  0  0  0  0  0  0  0  0  0
   10.5792   -4.0375    0.0000 N   0  0  0  0  0  0  0  0  0  0  0  0
   14.7042   -3.3917    0.0000 C   0  0  0  0  0  0  0  0  0  0  0  0
   13.5792   -3.2875    0.0000 O   0  0  0  0  0  0  0  0  0  0  0  0
   13.5792   -4.7875    0.0000 O   0  0  0  0  0  0  0  0  0  0  0  0
   10.5792   -5.3292    0.0000 O   0  0  0  0  0  0  0  0  0  0  0  0
   10.2042   -5.9750    0.0000 O   0  0  0  0  0  0  0  0  0  0  0  0
   15.4542   -3.3917    0.0000 O   0  0  0  0  0  0  0  0  0  0  0  0
   12.4542   -3.3875    0.0000 C   0  0  0  0  0  0  0  0  0  0  0  0
   12.4542   -4.6875    0.0000 C   0  0  0  0  0  0  0  0  0  0  0  0
   11.3292   -4.0375    0.0000 C   0  0  0  0  0  0  0  0  0  0  0  0
    9.0875   -6.6292    0.0000 O   0  0  0  0  0  0  0  0  0  0  0  0
   11.7042   -4.6875    0.0000 C   0  0  0  0  0  0  0  0  0  0  0  0
   11.7042   -3.3875    0.0000 C   0  0  0  0  0  0  0  0  0  0  0  0
    9.0792   -4.0375    0.0000 C   0  0  0  0  0  0  0  0  0  0  0  0
    8.3292   -5.3375    0.0000 C   0  0  0  0  0  0  0  0  0  0  0  0
   14.3292   -2.7500    0.0000 C   0  0  0  0  0  0  0  0  0  0  0  0
    8.3292   -4.0375    0.0000 C   0  0  0  0  0  0  0  0  0  0  0  0
    7.9542   -4.6875    0.0000 C   0  0  0  0  0  0  0  0  0  0  0  0
  2  1  1  0
  3  8  1  0
  4  3  1  0
  5  4  2  0
  6  5  1  0
  7  1  1  0
  8 17  1  0
  9  2  1  0
 10  1  2  0
 11  1  2  0
 12  3  2  0
 13  6  2  0
 14  9  2  0
 15  7  2  0
 16  7  1  0
 17 19  1  0
 18  6  1  0
 19 16  2  0
 20 15  1  0
 21  4  1  0
 22  5  1  0
 23  9  1  0
 24 21  2  0
 25 24  1  0
 17 20  2  0
 25 22  2  0
M  END
>  <ID>  (1306) 


>  <MOLENAME>  (1306) 
PHTHALYLSULFACETAMIDE

>  <therap>  (1306) 
antibacterial

>  <ref>  (1306) 
J Indian Chem Soc 26:130 (1949)

>  <cas#>  (1306) 
131-69-1

>  <source>  (1306) 
synthetic

>  <status>  (1306) 
NF-XIII, BAN

>  <tradename>  (1306) 
TALSIGEL

>  <SMILES>  (1306) 
CC(=O)NS(=O)(=O)c1ccc(NC(=O)c2c(C(=O)O)cccc2)cc1

>  <standardized_failed>  (1306) 
False

$$$$

     RDKit          2D

 12 12  0  0  0  0  0  0  0  0999 V2000
   -0.5625    1.1458    0.0000 C   0  0  0  0  0  0  0  0  0  0  0  0
    3.5625   -0.2792    0.0000 C   0  0  0  0  0  0  0  0  0  0  0  0
   -0.1458    0.4333    0.0000 N   0  0  0  0  0  0  0  0  0  0  0  0
    3.1500    0.4375    0.0000 N   0  0  0  0  0  0  0  0  0  0  0  0
   -1.0708    2.0000    0.0000 S   0  0  0  0  0  0  0  0  0  0  0  0
    3.8917   -0.9042    0.0000 S   0  0  0  0  0  0  0  0  0  0  0  0
    2.3208    0.4375    0.0000 C   0  0  0  0  0  0  0  0  0  0  0  0
    0.6792    0.4333    0.0000 C   0  0  0  0  0  0  0  0  0  0  0  0
    1.0875    1.1458    0.0000 C   0  0  0  0  0  0  0  0  0  0  0  0
    1.9125   -0.2750    0.0000 C   0  0  0  0  0  0  0  0  0  0  0  0
    1.0875   -0.2750    0.0000 C   0  0  0  0  0  0  0  0  0  0  0  0
    1.9125    1.1500    0.0000 C   0  0  0  0  0  0  0  0  0  0  0  0
  2  4  2  0
  3  1  2  0
  4  7  1  0
  5  1  2  0
  6  2  2  0
  7 10  2  0
  8  3  1  0
  9  8  1  0
 10 11  1  0
 11  8  2  0
 12  9  2  0
 12  7  1  0
M  END
>  <ID>  (1307) 


>  <MOLENAME>  (1307) 
BITOSCANATE

>  <therap>  (1307) 
anthelmintic

>  <ref>  (1307) 
Arch Pathol Lab Med 100:127 (1976); J Pediatr Surg 18:131 (1983)

>  <cas#>  (1307) 
4044-65-9

>  <source>  (1307) 
synthetic; 16842

>  <status>  (1307) 
INN, MI

>  <tradename>  (1307) 
JONIT

>  <SMILES>  (1307) 
S=C=Nc1ccc(N=C=S)cc1

>  <standardized_failed>  (1307) 
False

$$$$

     RDKit          2D

 31 34  0  0  0  0  0  0  0  0999 V2000
    6.3250   -0.9458    0.0000 N   0  0  0  0  0  0  0  0  0  0  0  0
    5.4917   -0.9458    0.0000 C   0  0  0  0  0  0  0  0  0  0  0  0
    6.3250   -1.7792    0.0000 C   0  0  0  0  0  0  0  0  0  0  0  0
    5.4917   -1.7750    0.0000 C   0  0  0  0  0  0  0  0  0  0  0  0
    7.0333   -0.5375    0.0000 C   0  0  0  0  0  0  0  0  0  0  0  0
    7.7458   -0.9542    0.0000 C   0  0  0  0  0  0  0  0  0  0  0  0
    7.0333   -2.1875    0.0000 S   0  0  0  0  0  0  0  0  0  0  0  0
    9.1708   -0.9542    0.0000 N   0  0  0  0  0  0  0  0  0  0  0  0
    4.9042   -2.3542    0.0000 N   0  0  0  0  0  0  0  0  0  0  0  0
    7.0375    0.2875    0.0000 C   0  0  0  0  0  0  0  0  0  0  0  0
    4.1125   -2.1417    0.0000 C   0  0  0  0  0  0  0  0  0  0  0  0
    8.4542   -0.5417    0.0000 C   0  0  0  0  0  0  0  0  0  0  0  0
    7.7458   -1.7792    0.0000 C   0  0  0  0  0  0  0  0  0  0  0  0
    3.5292   -2.7167    0.0000 C   0  0  0  0  0  0  0  0  0  0  0  0
   11.3000   -2.1875    0.0000 C   0  0  0  0  0  0  0  0  0  0  0  0
    2.7292   -2.5083    0.0000 C   0  0  0  0  0  0  0  0  0  0  0  0
    4.9083   -0.3625    0.0000 O   0  0  0  0  0  0  0  0  0  0  0  0
    2.3625   -1.7708    0.0000 S   0  0  0  0  0  0  0  0  0  0  0  0
   10.5833   -1.7750    0.0000 C   0  0  0  0  0  0  0  0  0  0  0  0
    7.7542    0.7000    0.0000 O   0  0  0  0  0  0  0  0  0  0  0  0
    1.5500   -1.9000    0.0000 C   0  0  0  0  0  0  0  0  0  0  0  0
    6.3250    0.7042    0.0000 O   0  0  0  0  0  0  0  0  0  0  0  0
    2.1500   -3.0875    0.0000 C   0  0  0  0  0  0  0  0  0  0  0  0
    3.9000   -1.3417    0.0000 O   0  0  0  0  0  0  0  0  0  0  0  0
   11.3000   -3.0125    0.0000 O   0  0  0  0  0  0  0  0  0  0  0  0
    1.4167   -2.7083    0.0000 C   0  0  0  0  0  0  0  0  0  0  0  0
    9.1667   -1.7708    0.0000 C   0  0  0  0  0  0  0  0  0  0  0  0
    9.8792   -0.5500    0.0000 C   0  0  0  0  0  0  0  0  0  0  0  0
    9.8708   -2.1833    0.0000 C   0  0  0  0  0  0  0  0  0  0  0  0
   10.5875   -0.9583    0.0000 C   0  0  0  0  0  0  0  0  0  0  0  0
   12.0125   -1.7750    0.0000 N   0  0  0  0  0  0  0  0  0  0  0  0
  2  1  1  0
  3  1  1  0
  4  3  1  0
  5  1  1  0
  6  5  2  0
  3  7  1  6
  8 12  1  0
  4  9  1  6
 10  5  1  0
 11  9  1  0
 12  6  1  0
 13  6  1  0
 14 11  1  0
 15 19  1  0
 16 14  1  0
 17  2  2  0
 18 16  1  0
 19 30  2  0
 20 10  1  0
 21 18  1  0
 22 10  2  0
 23 16  2  0
 24 11  2  0
 25 15  2  0
 26 23  1  0
 27  8  1  0
 28  8  2  0
 29 27  2  0
 30 28  1  0
 31 15  1  0
  4  2  1  0
 13  7  1  0
 19 29  1  0
 26 21  2  0
M  CHG  2   8   1  20  -1
M  END
>  <ID>  (1308) 


>  <MOLENAME>  (1308) 
CEFALONIUM

>  <therap>  (1308) 
antibacterial

>  <ref>  (1308) 
Drugs Today (1976), 12(12), 500-2; Antimicrob. Agents Chemother. (1966), 573-80.

>  <cas#>  (1308) 
5575-21-3

>  <source>  (1308) 
synthetic; 41071

>  <status>  (1308) 
INN, BAN

>  <tradename>  (1308) 
nan

>  <SMILES>  (1308) 
NC(=O)c1cc[n+](CC2=C(C(=O)[O-])N3C(=O)[C@@H](NC(=O)Cc4cccs4)[C@H]3SC2)cc1

>  <standardized_failed>  (1308) 
False

$$$$

     RDKit          2D

 14 14  0  0  0  0  0  0  0  0999 V2000
    3.4375   -3.5000    0.0000 C   0  0  0  0  0  0  0  0  0  0  0  0
    7.0125   -1.4250    0.0000 C   0  0  0  0  0  0  0  0  0  0  0  0
    3.4375   -2.6750    0.0000 N   0  0  0  0  0  0  0  0  0  0  0  0
    4.1542   -3.9125    0.0000 O   0  0  0  0  0  0  0  0  0  0  0  0
    7.0125   -2.2500    0.0000 O   0  0  0  0  0  0  0  0  0  0  0  0
    6.2958   -1.0167    0.0000 C   0  0  0  0  0  0  0  0  0  0  0  0
    4.1542   -2.2625    0.0000 C   0  0  0  0  0  0  0  0  0  0  0  0
    5.5833   -1.4333    0.0000 C   0  0  0  0  0  0  0  0  0  0  0  0
    7.7250   -1.0125    0.0000 O   0  0  0  0  0  0  0  0  0  0  0  0
    4.1542   -1.4375    0.0000 C   0  0  0  0  0  0  0  0  0  0  0  0
    4.8667   -2.6750    0.0000 C   0  0  0  0  0  0  0  0  0  0  0  0
    4.8667   -1.0208    0.0000 C   0  0  0  0  0  0  0  0  0  0  0  0
    5.5833   -2.2625    0.0000 C   0  0  0  0  0  0  0  0  0  0  0  0
    2.7250   -3.9125    0.0000 C   0  0  0  0  0  0  0  0  0  0  0  0
  2  6  1  0
  3  1  1  0
  4  1  2  0
  5  2  2  0
  6  8  1  0
  7  3  1  0
  8 12  2  0
  9  2  1  0
 10  7  2  0
 11  7  1  0
 12 10  1  0
 13 11  2  0
 14  1  1  0
  8 13  1  0
M  END
>  <ID>  (1309) 


>  <MOLENAME>  (1309) 
ACTARIT

>  <therap>  (1309) 
antiarthritic

>  <ref>  (1309) 
Arzneim Forsch 40:693, 800, 806 (1990); 44:64 (1994)

>  <cas#>  (1309) 
18699-02-2

>  <source>  (1309) 
synthetic; MS-932

>  <status>  (1309) 
INN

>  <tradename>  (1309) 
MOVER

>  <SMILES>  (1309) 
CC(=O)Nc1ccc(CC(=O)O)cc1

>  <standardized_failed>  (1309) 
False

$$$$

     RDKit          2D

  9  9  0  0  0  0  0  0  0  0999 V2000
    3.6792    0.1625    0.0000 N   0  0  0  0  0  0  0  0  0  0  0  0
    3.6750    0.9875    0.0000 O   0  0  0  0  0  0  0  0  0  0  0  0
    4.3917   -0.2500    0.0000 C   0  0  0  0  0  0  0  0  0  0  0  0
    4.3917   -1.0792    0.0000 C   0  0  0  0  0  0  0  0  0  0  0  0
    2.9667   -0.2500    0.0000 C   0  0  0  0  0  0  0  0  0  0  0  0
    5.1125   -2.3167    0.0000 O   0  0  0  0  0  0  0  0  0  0  0  0
    2.9667   -1.0792    0.0000 C   0  0  0  0  0  0  0  0  0  0  0  0
    5.1125   -1.4917    0.0000 C   0  0  0  0  0  0  0  0  0  0  0  0
    3.6792   -1.4917    0.0000 C   0  0  0  0  0  0  0  0  0  0  0  0
  2  1  1  0
  3  1  2  0
  4  3  1  0
  5  1  1  0
  6  8  1  0
  7  5  2  0
  8  4  1  0
  9  7  1  0
  9  4  2  0
M  CHG  2   1   1   2  -1
M  END
>  <ID>  (1310) 


>  <MOLENAME>  (1310) 
MEPIROXOL

>  <therap>  (1310) 
antihyperlipemic

>  <ref>  (1310) 
Fr. M. (1968),patent FR 6092 date 19680722, ; Antibiot. Chemother. (1956), 6, 261-6.

>  <cas#>  (1310) 
6968-72-5

>  <source>  (1310) 
synthetic

>  <status>  (1310) 
INN

>  <tradename>  (1310) 
nan

>  <SMILES>  (1310) 
[O-][n+]1cc(CO)ccc1

>  <standardized_failed>  (1310) 
False

$$$$

     RDKit          2D

 16 16  0  0  0  0  0  0  0  0999 V2000
    3.5542   -2.4292    0.0000 N   0  0  0  0  0  0  0  0  0  0  0  0
    4.2708   -2.8417    0.0000 C   0  0  0  0  0  0  0  0  0  0  0  0
    4.2708   -3.6708    0.0000 N   0  0  0  0  0  0  0  0  0  0  0  0
    2.8417   -3.6708    0.0000 N   0  0  0  0  0  0  0  0  0  0  0  0
    2.8417   -2.8417    0.0000 C   0  0  0  0  0  0  0  0  0  0  0  0
    3.5542   -4.0833    0.0000 C   0  0  0  0  0  0  0  0  0  0  0  0
    4.9792   -2.4292    0.0000 N   0  0  0  0  0  0  0  0  0  0  0  0
    5.6917   -2.8375    0.0000 C   0  0  0  0  0  0  0  0  0  0  0  0
    7.1167   -3.6542    0.0000 C   0  0  0  0  0  0  0  0  0  0  0  0
    7.8333   -4.0625    0.0000 Cl  0  0  0  0  0  0  0  0  0  0  0  0
    8.8042   -2.6167    0.0000 Cl  0  0  0  0  0  0  0  0  0  0  0  0
    5.6917   -3.6583    0.0000 C   0  0  0  0  0  0  0  0  0  0  0  0
    6.4000   -2.4250    0.0000 C   0  0  0  0  0  0  0  0  0  0  0  0
    7.1125   -2.8292    0.0000 C   0  0  0  0  0  0  0  0  0  0  0  0
    6.4042   -4.0667    0.0000 C   0  0  0  0  0  0  0  0  0  0  0  0
    2.1292   -2.4333    0.0000 C   0  0  0  0  0  0  0  0  0  0  0  0
  2  1  2  0
  3  2  1  0
  4  5  2  0
  5  1  1  0
  6  4  1  0
  7  2  1  0
  8  7  1  0
  9 14  2  0
 10  9  1  0
 12  8  1  0
 13  8  2  0
 14 13  1  0
 15 12  2  0
 16  5  1  0
  3  6  2  0
  9 15  1  0
M  END
>  <ID>  (1311) 


>  <MOLENAME>  (1311) 
CHLORAZANIL HYDROCHLORIDE

>  <therap>  (1311) 
diuretic

>  <ref>  (1311) 
J Pharmacol Exp Ther 130:222 (1960); Acta Pharmacol Toxicol 47:263 (1980)

>  <cas#>  (1311) 
2019-25-2

>  <source>  (1311) 
synthetic

>  <status>  (1311) 
INN

>  <tradename>  (1311) 
DAQUIN

>  <SMILES>  (1311) 
Cc1ncnc(Nc2ccc(Cl)cc2)n1

>  <standardized_failed>  (1311) 
False

$$$$

     RDKit          2D

 17 18  0  0  0  0  0  0  0  0999 V2000
    6.0792   -3.5125    0.0000 C   0  0  0  0  0  0  0  0  0  0  0  0
    5.5875   -2.8417    0.0000 O   0  0  0  0  0  0  0  0  0  0  0  0
    6.7917   -3.9250    0.0000 C   0  0  0  0  0  0  0  0  0  0  0  0
    7.5417   -3.5875    0.0000 N   0  0  0  0  0  0  0  0  0  0  0  0
    4.8042   -3.1042    0.0000 C   0  0  0  0  0  0  0  0  0  0  0  0
    5.5917   -4.1792    0.0000 C   0  0  0  0  0  0  0  0  0  0  0  0
    4.8042   -3.9292    0.0000 C   0  0  0  0  0  0  0  0  0  0  0  0
    6.8792   -4.7417    0.0000 N   0  0  0  0  0  0  0  0  0  0  0  0
    6.7917   -3.0917    0.0000 C   0  0  0  0  0  0  0  0  0  0  0  0
    5.8000   -5.4375    0.0000 Cl  0  0  0  0  0  0  0  0  0  0  0  0
    8.0917   -4.1917    0.0000 C   0  0  0  0  0  0  0  0  0  0  0  0
    7.6792   -4.9042    0.0000 C   0  0  0  0  0  0  0  0  0  0  0  0
    4.0875   -2.6917    0.0000 C   0  0  0  0  0  0  0  0  0  0  0  0
    4.0875   -4.3500    0.0000 C   0  0  0  0  0  0  0  0  0  0  0  0
    6.7792   -2.2667    0.0000 C   0  0  0  0  0  0  0  0  0  0  0  0
    3.3750   -3.1125    0.0000 C   0  0  0  0  0  0  0  0  0  0  0  0
    3.3750   -3.9375    0.0000 C   0  0  0  0  0  0  0  0  0  0  0  0
  2  1  1  0
  3  1  1  0
  4  3  2  0
  5  2  1  0
  6  1  1  0
  7  6  1  0
  8  3  1  0
  9  1  1  0
 11  4  1  0
 12  8  1  0
 13  5  2  0
 14  7  2  0
 15  9  1  0
 16 13  1  0
 17 14  1  0
  5  7  1  0
 12 11  1  0
 16 17  2  0
M  END
>  <ID>  (1312) 


>  <MOLENAME>  (1312) 
EFAROXAN HYDROCHLORIDE

>  <therap>  (1312) 
insulin secretagogue, alpha2 adrenorecetor antagonist

>  <ref>  (1312) 
Naunyn Schmiedebergs Arch Pharmacol 359: 262 (1999)

>  <cas#>  (1312) 
89197-32-0

>  <source>  (1312) 
synthetic

>  <status>  (1312) 
INN, BAN

>  <tradename>  (1312) 
nan

>  <SMILES>  (1312) 
CCC1(C2=NCCN2)Cc2ccccc2O1

>  <standardized_failed>  (1312) 
False

$$$$

     RDKit          2D

 13 13  0  0  0  0  0  0  0  0999 V2000
    1.4125    0.3083    0.0000 S   0  0  0  0  0  0  0  0  0  0  0  0
    2.2375    0.3083    0.0000 C   0  0  0  0  0  0  0  0  0  0  0  0
    4.7042    0.3125    0.0000 C   0  0  0  0  0  0  0  0  0  0  0  0
    1.4042   -0.5167    0.0000 O   0  0  0  0  0  0  0  0  0  0  0  0
    1.4042    1.1333    0.0000 O   0  0  0  0  0  0  0  0  0  0  0  0
    3.8792    0.3125    0.0000 C   0  0  0  0  0  0  0  0  0  0  0  0
    0.5875    0.3125    0.0000 N   0  0  0  0  0  0  0  0  0  0  0  0
    5.1167    1.0250    0.0000 O   0  0  0  0  0  0  0  0  0  0  0  0
    2.6417    1.0208    0.0000 C   0  0  0  0  0  0  0  0  0  0  0  0
    2.6417   -0.4000    0.0000 C   0  0  0  0  0  0  0  0  0  0  0  0
    3.4667   -0.4000    0.0000 C   0  0  0  0  0  0  0  0  0  0  0  0
    3.4667    1.0250    0.0000 C   0  0  0  0  0  0  0  0  0  0  0  0
    5.1167   -0.4042    0.0000 O   0  0  0  0  0  0  0  0  0  0  0  0
  2  1  1  0
  3  6  1  0
  4  1  2  0
  5  1  2  0
  6 11  1  0
  7  1  1  0
  8  3  2  0
  9  2  2  0
 10  2  1  0
 11 10  2  0
 12  9  1  0
 13  3  1  0
  6 12  2  0
M  END
>  <ID>  (1313) 


>  <MOLENAME>  (1313) 
CARZENIDE

>  <therap>  (1313) 
diuretic, carbonic anhydrase inhibitor

>  <ref>  (1313) 
J Chem Soc 1960:1408; Pharmazie 38:102 (1983)

>  <cas#>  (1313) 
138-41-0

>  <source>  (1313) 
synthetic

>  <status>  (1313) 
INN

>  <tradename>  (1313) 
nan

>  <SMILES>  (1313) 
NS(=O)(=O)c1ccc(C(=O)O)cc1

>  <standardized_failed>  (1313) 
False

$$$$

     RDKit          2D

 24 26  0  0  0  0  0  0  0  0999 V2000
    6.1083   -7.2667    0.0000 C   0  0  0  0  0  0  0  0  0  0  0  0
    5.4667   -6.7458    0.0000 N   0  0  0  0  0  0  0  0  0  0  0  0
    5.8125   -8.0375    0.0000 N   0  0  0  0  0  0  0  0  0  0  0  0
    4.7708   -7.1958    0.0000 C   0  0  0  0  0  0  0  0  0  0  0  0
    4.9833   -7.9958    0.0000 C   0  0  0  0  0  0  0  0  0  0  0  0
    6.8500   -7.0375    0.0000 C   0  0  0  0  0  0  0  0  0  0  0  0
    7.5625   -7.4417    0.0000 N   0  0  0  0  0  0  0  0  0  0  0  0
    5.5083   -5.9208    0.0000 C   0  0  0  0  0  0  0  0  0  0  0  0
    6.2417   -5.5458    0.0000 C   0  0  0  0  0  0  0  0  0  0  0  0
    7.7125   -4.8000    0.0000 C   0  0  0  0  0  0  0  0  0  0  0  0
    8.4458   -4.4250    0.0000 Cl  0  0  0  0  0  0  0  0  0  0  0  0
    9.6500   -5.9625    0.0000 Cl  0  0  0  0  0  0  0  0  0  0  0  0
    6.9333   -5.9958    0.0000 C   0  0  0  0  0  0  0  0  0  0  0  0
    6.2833   -4.7250    0.0000 C   0  0  0  0  0  0  0  0  0  0  0  0
    7.0125   -4.3500    0.0000 C   0  0  0  0  0  0  0  0  0  0  0  0
    7.6667   -5.6250    0.0000 C   0  0  0  0  0  0  0  0  0  0  0  0
    3.9708   -6.9833    0.0000 C   0  0  0  0  0  0  0  0  0  0  0  0
    4.4042   -8.5750    0.0000 C   0  0  0  0  0  0  0  0  0  0  0  0
    8.3083   -7.1083    0.0000 C   0  0  0  0  0  0  0  0  0  0  0  0
    7.6500   -8.2583    0.0000 C   0  0  0  0  0  0  0  0  0  0  0  0
    3.3875   -7.5750    0.0000 C   0  0  0  0  0  0  0  0  0  0  0  0
    8.4542   -8.4292    0.0000 C   0  0  0  0  0  0  0  0  0  0  0  0
    8.8625   -7.7167    0.0000 C   0  0  0  0  0  0  0  0  0  0  0  0
    3.6083   -8.3667    0.0000 C   0  0  0  0  0  0  0  0  0  0  0  0
  2  1  1  0
  3  1  2  0
  4  2  1  0
  5  3  1  0
  6  1  1  0
  7  6  1  0
  8  2  1  0
  9  8  1  0
 10 15  2  0
 11 10  1  0
 13  9  1  0
 14  9  2  0
 15 14  1  0
 16 13  2  0
 17  4  2  0
 18  5  2  0
 19  7  1  0
 20  7  1  0
 21 17  1  0
 22 20  1  0
 23 19  1  0
 24 18  1  0
  5  4  1  0
 23 22  1  0
 24 21  2  0
 10 16  1  0
M  END
>  <ID>  (1314) 


>  <MOLENAME>  (1314) 
CLEMIZOLE HYDROCHLORIDE

>  <therap>  (1314) 
H1-antihistamine

>  <ref>  (1314) 
Ann 575:162 (1952)

>  <cas#>  (1314) 
1163-36-6, 442-52-4(base)

>  <source>  (1314) 
synthetic; AL-20

>  <status>  (1314) 
INN, BAN, JAN

>  <tradename>  (1314) 
nan

>  <SMILES>  (1314) 
Clc1ccc(Cn2c(CN3CCCC3)nc3ccccc32)cc1

>  <standardized_failed>  (1314) 
False

$$$$

     RDKit          2D

  8  8  0  0  0  0  0  0  0  0999 V2000
    3.4125   -0.7792    0.0000 C   0  0  0  0  0  0  0  0  0  0  0  0
    3.8917   -1.4417    0.0000 C   0  0  0  0  0  0  0  0  0  0  0  0
    2.5875   -0.7792    0.0000 N   0  0  0  0  0  0  0  0  0  0  0  0
    3.0000    0.4958    0.0000 S   0  0  0  0  0  0  0  0  0  0  0  0
    3.5542   -2.2000    0.0000 O   0  0  0  0  0  0  0  0  0  0  0  0
    2.3292    0.0083    0.0000 C   0  0  0  0  0  0  0  0  0  0  0  0
    4.7167   -1.3542    0.0000 O   0  0  0  0  0  0  0  0  0  0  0  0
    3.6667    0.0083    0.0000 C   0  0  0  0  0  0  0  0  0  0  0  0
  2  1  1  0
  3  1  1  0
  4  8  1  0
  5  2  2  0
  6  3  1  0
  7  2  1  0
  8  1  1  0
  4  6  1  0
M  END
>  <ID>  (1315) 


>  <MOLENAME>  (1315) 
TIMONACIC

>  <therap>  (1315) 
hepatoprotectant

>  <ref>  (1315) 
Gazz Med Ital 131:251, 265 (1972); Lancet 1:68 (1980 

>  <cas#>  (1315) 
444-27-9

>  <source>  (1315) 
synthetic; NSC-25855

>  <status>  (1315) 
INN

>  <tradename>  (1315) 
DETOXEPA

>  <SMILES>  (1315) 
O=C(O)C1CSCN1

>  <standardized_failed>  (1315) 
False

$$$$

     RDKit          2D

 21 21  0  0  0  0  0  0  0  0999 V2000
    2.0250   -0.4000    0.0000 N   0  0  0  0  0  0  0  0  0  0  0  0
    1.6125   -1.1125    0.0000 C   0  0  0  0  0  0  0  0  0  0  0  0
    2.0250   -1.8208    0.0000 N   0  0  0  0  0  0  0  0  0  0  0  0
    1.6125    0.3125    0.0000 C   0  0  0  0  0  0  0  0  0  0  0  0
    2.8417   -0.4000    0.0000 C   0  0  0  0  0  0  0  0  0  0  0  0
    0.7917    0.3125    0.0000 C   0  0  0  0  0  0  0  0  0  0  0  0
    4.0792   -1.1083    0.0000 N   0  0  0  0  0  0  0  0  0  0  0  0
    3.2542   -1.1125    0.0000 C   0  0  0  0  0  0  0  0  0  0  0  0
   -0.8542    0.3083    0.0000 C   0  0  0  0  0  0  0  0  0  0  0  0
   -1.6792    0.3083    0.0000 Cl  0  0  0  0  0  0  0  0  0  0  0  0
    3.0792    0.7833    0.0000 Cl  0  0  0  0  0  0  0  0  0  0  0  0
    0.3792   -0.4000    0.0000 C   0  0  0  0  0  0  0  0  0  0  0  0
    0.3792    1.0250    0.0000 C   0  0  0  0  0  0  0  0  0  0  0  0
   -0.4458   -0.4000    0.0000 C   0  0  0  0  0  0  0  0  0  0  0  0
   -0.4458    1.0208    0.0000 C   0  0  0  0  0  0  0  0  0  0  0  0
    0.7875   -1.1083    0.0000 C   0  0  0  0  0  0  0  0  0  0  0  0
    1.6167   -2.5375    0.0000 C   0  0  0  0  0  0  0  0  0  0  0  0
    4.4958   -1.8250    0.0000 C   0  0  0  0  0  0  0  0  0  0  0  0
    4.4917   -0.3958    0.0000 C   0  0  0  0  0  0  0  0  0  0  0  0
    0.3750   -1.8250    0.0000 C   0  0  0  0  0  0  0  0  0  0  0  0
    0.7875   -2.5375    0.0000 C   0  0  0  0  0  0  0  0  0  0  0  0
  2  1  1  0
  3  2  2  0
  4  1  1  0
  5  1  1  0
  6  4  1  0
  7  8  1  0
  8  5  1  0
  9 15  2  0
 10  9  1  0
 12  6  1  0
 13  6  2  0
 14 12  2  0
 15 13  1  0
 16  2  1  0
 17  3  1  0
 18  7  1  0
 19  7  1  0
 20 16  2  0
 21 17  2  0
 14  9  1  0
 21 20  1  0
M  END
>  <ID>  (1316) 


>  <MOLENAME>  (1316) 
CHLOROPYRAMINE HYDROCHLORIDE

>  <therap>  (1316) 
antihistamine

>  <ref>  (1316) 
Agents Actions (1980), 10(1-2), 98-100; Acta Physiol. Polon. (1956), 7, 65-80; J. Physiol. (1986), 81(3), 185-90

>  <cas#>  (1316) 
6170-42-9, 59-32-5 (base)

>  <source>  (1316) 
synthetic

>  <status>  (1316) 
INN, BAN

>  <tradename>  (1316) 
HALOPYRAMINE

>  <SMILES>  (1316) 
CN(C)CCN(Cc1ccc(Cl)cc1)c1ncccc1

>  <standardized_failed>  (1316) 
False

$$$$

     RDKit          2D

 13 13  0  0  0  0  0  0  0  0999 V2000
    3.6917   -2.4292    0.0000 C   0  0  0  0  0  0  0  0  0  0  0  0
    2.8750   -2.4292    0.0000 N   0  0  0  0  0  0  0  0  0  0  0  0
    4.1042   -3.1417    0.0000 C   0  0  0  0  0  0  0  0  0  0  0  0
    4.1042   -1.7125    0.0000 O   0  0  0  0  0  0  0  0  0  0  0  0
    2.4625   -1.7167    0.0000 C   0  0  0  0  0  0  0  0  0  0  0  0
    5.3417   -3.8542    0.0000 Cl  0  0  0  0  0  0  0  0  0  0  0  0
    1.6417   -1.7167    0.0000 C   0  0  0  0  0  0  0  0  0  0  0  0
    4.9292   -3.1375    0.0000 C   0  0  0  0  0  0  0  0  0  0  0  0
    1.2292   -1.0042    0.0000 C   0  0  0  0  0  0  0  0  0  0  0  0
    1.2292   -2.4292    0.0000 C   0  0  0  0  0  0  0  0  0  0  0  0
    0.4042   -1.0042    0.0000 C   0  0  0  0  0  0  0  0  0  0  0  0
    0.4042   -2.4292    0.0000 C   0  0  0  0  0  0  0  0  0  0  0  0
   -0.0083   -1.7167    0.0000 C   0  0  0  0  0  0  0  0  0  0  0  0
  2  1  1  0
  3  1  1  0
  4  1  2  0
  5  2  1  0
  6  8  1  0
  7  5  1  0
  8  3  1  0
  9  7  2  0
 10  7  1  0
 11  9  1  0
 12 10  2  0
 13 12  1  0
 11 13  2  0
M  END
>  <ID>  (1317) 


>  <MOLENAME>  (1317) 
BECLAMIDE

>  <therap>  (1317) 
anticonvulsant, antiepileptic

>  <ref>  (1317) 
J Org Chem 16:1283 (1951); Acta Psychiatrica Scandinavica 81:162 (1990); J Pharmacy Pharmacol 47 :876  (1995)

>  <cas#>  (1317) 
501-68-8

>  <source>  (1317) 
synthetic; mp 94 deg C

>  <status>  (1317) 
INN, BAN

>  <tradename>  (1317) 
NEURACEN

>  <SMILES>  (1317) 
O=C(CCCl)NCc1ccccc1

>  <standardized_failed>  (1317) 
False

$$$$

     RDKit          2D

 36 37  0  0  0  0  0  0  0  0999 V2000
   -1.8000   -1.8917    0.0000 N   0  0  0  0  0  0  0  0  0  0  0  0
    1.7625   -8.9250    0.0000 N   0  0  0  0  0  0  0  0  0  0  0  0
    2.4750   -9.3375    0.0000 C   0  0  0  0  0  0  0  0  0  0  0  0
   -2.5125   -1.4792    0.0000 C   0  0  0  0  0  0  0  0  0  0  0  0
    1.0417   -9.3375    0.0000 C   0  0  0  0  0  0  0  0  0  0  0  0
   -1.0833   -1.4792    0.0000 C   0  0  0  0  0  0  0  0  0  0  0  0
    2.4750  -10.1667    0.0000 C   0  0  0  0  0  0  0  0  0  0  0  0
   -2.5125   -0.6542    0.0000 C   0  0  0  0  0  0  0  0  0  0  0  0
   -1.8000   -0.2417    0.0000 C   0  0  0  0  0  0  0  0  0  0  0  0
    1.7625  -10.5792    0.0000 C   0  0  0  0  0  0  0  0  0  0  0  0
   -1.0833   -0.6542    0.0000 C   0  0  0  0  0  0  0  0  0  0  0  0
    1.0417  -10.1667    0.0000 C   0  0  0  0  0  0  0  0  0  0  0  0
   -3.1875   -2.9542    0.0000 Cl  0  0  0  0  0  0  0  0  0  0  0  0
    2.9292   -8.0417    0.0000 Cl  0  0  0  0  0  0  0  0  0  0  0  0
   -1.8000   -2.7167    0.0000 C   0  0  0  0  0  0  0  0  0  0  0  0
    1.7625   -8.0917    0.0000 C   0  0  0  0  0  0  0  0  0  0  0  0
   -1.8000    0.5833    0.0000 N   0  0  0  0  0  0  0  0  0  0  0  0
    1.7667  -11.4042    0.0000 N   0  0  0  0  0  0  0  0  0  0  0  0
    3.1875   -8.9250    0.0000 C   0  0  0  0  0  0  0  0  0  0  0  0
   -3.2250   -1.8917    0.0000 C   0  0  0  0  0  0  0  0  0  0  0  0
    3.1875  -10.5792    0.0000 C   0  0  0  0  0  0  0  0  0  0  0  0
   -3.2250   -0.2417    0.0000 C   0  0  0  0  0  0  0  0  0  0  0  0
   -0.3625   -1.9000    0.0000 C   0  0  0  0  0  0  0  0  0  0  0  0
    0.3250   -8.9167    0.0000 C   0  0  0  0  0  0  0  0  0  0  0  0
    1.0500   -7.6792    0.0000 C   0  0  0  0  0  0  0  0  0  0  0  0
   -1.0875   -3.1292    0.0000 C   0  0  0  0  0  0  0  0  0  0  0  0
    0.3375   -6.4417    0.0000 C   0  0  0  0  0  0  0  0  0  0  0  0
    1.0500   -6.8542    0.0000 C   0  0  0  0  0  0  0  0  0  0  0  0
   -1.0875   -3.9542    0.0000 C   0  0  0  0  0  0  0  0  0  0  0  0
   -0.3750   -4.3667    0.0000 C   0  0  0  0  0  0  0  0  0  0  0  0
   -0.3750   -5.2000    0.0000 C   0  0  0  0  0  0  0  0  0  0  0  0
    0.3375   -5.6125    0.0000 C   0  0  0  0  0  0  0  0  0  0  0  0
   -3.9458   -0.6542    0.0000 C   0  0  0  0  0  0  0  0  0  0  0  0
    3.9042  -10.1667    0.0000 C   0  0  0  0  0  0  0  0  0  0  0  0
   -3.9458   -1.4792    0.0000 C   0  0  0  0  0  0  0  0  0  0  0  0
    3.9042   -9.3375    0.0000 C   0  0  0  0  0  0  0  0  0  0  0  0
  2 16  1  0
  3  2  1  0
  4  1  1  0
  5  2  2  0
  6  1  2  0
  7  3  2  0
  8  4  2  0
  9 11  2  0
 10 12  2  0
 11  6  1  0
 12  5  1  0
 15  1  1  0
 16 25  1  0
 17  9  1  0
 18 10  1  0
 19  3  1  0
 20  4  1  0
 21  7  1  0
 22  8  1  0
 23  6  1  0
 24  5  1  0
 25 28  1  0
 26 15  1  0
 27 32  1  0
 28 27  1  0
 29 26  1  0
 30 29  1  0
 31 30  1  0
 32 31  1  0
 33 35  1  0
 34 36  1  0
 35 20  2  0
 36 19  2  0
  8  9  1  0
 22 33  2  0
  7 10  1  0
 21 34  2  0
M  CHG  4   1   1   2   1  13  -1  14  -1
M  END
>  <ID>  (1318) 


>  <MOLENAME>  (1318) 
DEQUALINIUM CHLORIDE

>  <therap>  (1318) 
antiinfectant, antineoplastic

>  <ref>  (1318) 
Fortschr Med 95:1108 (1977); Arch Surg 121:1272 (1986); J Pharm Sci 82:231 (1993)

>  <cas#>  (1318) 
522-51-0, 6707-58-0 [dequalinium]

>  <source>  (1318) 
synthetic; BAQD-10

>  <status>  (1318) 
INN, BAN, JAN

>  <tradename>  (1318) 
FLUOMIZIN

>  <SMILES>  (1318) 
Cc1[n+](CCCCCCCCCC[n+]2c(C)cc(N)c3c2cccc3)c2c(cccc2)c(N)c1

>  <standardized_failed>  (1318) 
False

$$$$

     RDKit          2D

 29 32  0  0  0  0  0  0  0  0999 V2000
    7.8750   -1.3458    0.0000 N   0  0  0  0  0  0  0  0  0  0  0  0
    8.5833   -1.7542    0.0000 C   0  0  0  0  0  0  0  0  0  0  0  0
    6.4500   -0.5292    0.0000 N   0  0  0  0  0  0  0  0  0  0  0  0
    2.8958   -1.7792    0.0000 C   0  0  0  0  0  0  0  0  0  0  0  0
    3.6042   -1.3625    0.0000 C   0  0  0  0  0  0  0  0  0  0  0  0
    3.6000   -0.5375    0.0000 O   0  0  0  0  0  0  0  0  0  0  0  0
    7.8750   -0.5208    0.0000 C   0  0  0  0  0  0  0  0  0  0  0  0
    7.1625   -1.7583    0.0000 C   0  0  0  0  0  0  0  0  0  0  0  0
    8.5833   -2.5833    0.0000 C   0  0  0  0  0  0  0  0  0  0  0  0
    5.7375   -0.1167    0.0000 C   0  0  0  0  0  0  0  0  0  0  0  0
    6.4500   -1.3458    0.0000 C   0  0  0  0  0  0  0  0  0  0  0  0
    7.1625   -0.1167    0.0000 C   0  0  0  0  0  0  0  0  0  0  0  0
    2.8958   -2.6042    0.0000 C   0  0  0  0  0  0  0  0  0  0  0  0
    5.0250   -0.5292    0.0000 C   0  0  0  0  0  0  0  0  0  0  0  0
    4.3125   -0.1250    0.0000 C   0  0  0  0  0  0  0  0  0  0  0  0
    7.8667   -2.9958    0.0000 O   0  0  0  0  0  0  0  0  0  0  0  0
    5.0250   -1.3542    0.0000 O   0  0  0  0  0  0  0  0  0  0  0  0
    9.2958   -1.3458    0.0000 C   0  0  0  0  0  0  0  0  0  0  0  0
    4.3250   -2.6000    0.0000 C   0  0  0  0  0  0  0  0  0  0  0  0
    4.3208   -1.7708    0.0000 C   0  0  0  0  0  0  0  0  0  0  0  0
    2.1792   -1.3667    0.0000 C   0  0  0  0  0  0  0  0  0  0  0  0
    3.6125   -3.0167    0.0000 C   0  0  0  0  0  0  0  0  0  0  0  0
    9.2958   -2.9958    0.0000 C   0  0  0  0  0  0  0  0  0  0  0  0
    2.1792   -3.0208    0.0000 C   0  0  0  0  0  0  0  0  0  0  0  0
    7.8667   -3.8208    0.0000 C   0  0  0  0  0  0  0  0  0  0  0  0
   10.0083   -1.7542    0.0000 C   0  0  0  0  0  0  0  0  0  0  0  0
    1.4667   -1.7792    0.0000 C   0  0  0  0  0  0  0  0  0  0  0  0
   10.0125   -2.5833    0.0000 C   0  0  0  0  0  0  0  0  0  0  0  0
    1.4667   -2.6083    0.0000 C   0  0  0  0  0  0  0  0  0  0  0  0
  2  1  1  0
  3 12  1  0
  4  5  2  0
  5  6  1  0
  6 15  1  0
  7  1  1  0
  8  1  1  0
  9  2  2  0
 10  3  1  0
 11  8  1  0
 12  7  1  0
 13  4  1  0
 14 10  1  0
 15 14  1  0
 16  9  1  0
 17 14  1  0
 18  2  1  0
 19 20  2  0
 20  5  1  0
 21  4  1  0
 22 13  2  0
 23  9  1  0
 24 13  1  0
 25 16  1  0
 26 18  2  0
 27 21  2  0
 28 26  1  0
 29 24  2  0
 11  3  1  0
 28 23  2  0
 19 22  1  0
 29 27  1  0
M  END
>  <ID>  (1319) 


>  <MOLENAME>  (1319) 
NAFTOPIDIL

>  <therap>  (1319) 
antihypertensive, alpha-blocker, 5HT1a agonist

>  <ref>  (1319) 
Eur J Clin Pharmacol 46:271 (1994); Prostate 25:46 (1994); Cardiovasc Drug Rev 12:32 (1994)

>  <cas#>  (1319) 
57149-07-2

>  <source>  (1319) 
synthetic; KT-611

>  <status>  (1319) 
INN

>  <tradename>  (1319) 
AVISHOT

>  <SMILES>  (1319) 
COc1c(N2CCN(CC(O)COc3c4ccccc4ccc3)CC2)cccc1

>  <standardized_failed>  (1319) 
False

$$$$

     RDKit          2D

 28 31  0  0  0  0  0  0  0  0999 V2000
    6.3292   -1.6875    0.0000 C   0  0  0  0  0  0  0  0  0  0  0  0
    7.0417   -0.4417    0.0000 N   0  0  0  0  0  0  0  0  0  0  0  0
    7.7625   -1.6875    0.0000 C   0  0  0  0  0  0  0  0  0  0  0  0
    6.3292   -0.8542    0.0000 C   0  0  0  0  0  0  0  0  0  0  0  0
    7.0417   -2.1000    0.0000 C   0  0  0  0  0  0  0  0  0  0  0  0
    4.9042   -0.8625    0.0000 C   0  0  0  0  0  0  0  0  0  0  0  0
    5.6167   -0.4500    0.0000 C   0  0  0  0  0  0  0  0  0  0  0  0
    4.9042   -1.6875    0.0000 C   0  0  0  0  0  0  0  0  0  0  0  0
    7.7542   -0.8542    0.0000 C   0  0  0  0  0  0  0  0  0  0  0  0
    4.1917   -0.4500    0.0000 N   0  0  0  0  0  0  0  0  0  0  0  0
    5.6167   -2.1000    0.0000 C   0  0  0  0  0  0  0  0  0  0  0  0
    7.0375    0.3833    0.0000 C   0  0  0  0  0  0  0  0  0  0  0  0
    8.4792   -2.1000    0.0000 C   0  0  0  0  0  0  0  0  0  0  0  0
    2.7667    0.3750    0.0000 N   0  0  0  0  0  0  0  0  0  0  0  0
    7.4417    1.1000    0.0000 C   0  0  0  0  0  0  0  0  0  0  0  0
    6.6167    1.0958    0.0000 C   0  0  0  0  0  0  0  0  0  0  0  0
    3.4792   -0.8542    0.0000 C   0  0  0  0  0  0  0  0  0  0  0  0
    4.1917    0.3750    0.0000 C   0  0  0  0  0  0  0  0  0  0  0  0
    7.0417   -2.9250    0.0000 O   0  0  0  0  0  0  0  0  0  0  0  0
    3.4792    0.7958    0.0000 C   0  0  0  0  0  0  0  0  0  0  0  0
    2.7667   -0.4500    0.0000 C   0  0  0  0  0  0  0  0  0  0  0  0
    5.6125    0.3750    0.0000 F   0  0  0  0  0  0  0  0  0  0  0  0
    4.1875   -2.0917    0.0000 F   0  0  0  0  0  0  0  0  0  0  0  0
    8.4792   -2.9250    0.0000 O   0  0  0  0  0  0  0  0  0  0  0  0
    5.6125   -2.9250    0.0000 F   0  0  0  0  0  0  0  0  0  0  0  0
    9.1917   -1.6792    0.0000 O   0  0  0  0  0  0  0  0  0  0  0  0
    3.4750    1.6208    0.0000 C   0  0  0  0  0  0  0  0  0  0  0  0
    2.0542   -0.8542    0.0000 C   0  0  0  0  0  0  0  0  0  0  0  0
  2  4  1  0
  3  5  1  0
  4  1  2  0
  5  1  1  0
  6  8  1  0
  7  4  1  0
  8 11  2  0
  9  3  2  0
 10  6  1  0
 11  1  1  0
 12  2  1  0
 13  3  1  0
 14 20  1  0
 15 12  1  0
 16 12  1  0
 17 10  1  0
 18 10  1  0
 19  5  2  0
 20 18  1  0
 21 17  1  0
 22  7  1  0
 23  8  1  0
 24 13  2  0
 25 11  1  0
 26 13  1  0
 20 27  1  1
 21 28  1  1
  6  7  2  0
  2  9  1  0
 15 16  1  0
 21 14  1  0
M  END
>  <ID>  (1320) 


>  <MOLENAME>  (1320) 
ORBIFLOXACIN

>  <therap>  (1320) 
antibacterial

>  <ref>  (1320) 
Can J Vet Res 65:181 (2001); J Vet Pharmacol Ther 25:1 (2002); 29:191 (2006)

>  <cas#>  (1320) 
113617-63-3

>  <source>  (1320) 
synthetic

>  <status>  (1320) 
INN

>  <tradename>  (1320) 
ORBAX

>  <SMILES>  (1320) 
C[C@H]1CN(c2c(F)c3c(c(F)c2F)c(=O)c(C(=O)O)cn3C2CC2)C[C@@H](C)N1

>  <standardized_failed>  (1320) 
False

$$$$

     RDKit          2D

 21 20  0  0  0  0  0  0  0  0999 V2000
    6.7292   -0.7667    0.0000 C   0  0  0  0  0  0  0  0  0  0  0  0
    6.7292   -0.0917    0.0000 C   0  0  0  0  0  0  0  0  0  0  0  0
    2.8667   -0.8292    0.0000 N   0  0  0  0  0  0  0  0  0  0  0  0
    6.1500   -1.1042    0.0000 C   0  0  0  0  0  0  0  0  0  0  0  0
    7.3125    0.2458    0.0000 C   0  0  0  0  0  0  0  0  0  0  0  0
    2.1542   -0.4292    0.0000 C   0  0  0  0  0  0  0  0  0  0  0  0
    3.5792   -0.4292    0.0000 C   0  0  0  0  0  0  0  0  0  0  0  0
    7.3125    0.9208    0.0000 O   0  0  0  0  0  0  0  0  0  0  0  0
    5.5667   -0.7667    0.0000 O   0  0  0  0  0  0  0  0  0  0  0  0
    7.3125   -1.1042    0.0000 O   0  0  0  0  0  0  0  0  0  0  0  0
    6.1500    0.2458    0.0000 O   0  0  0  0  0  0  0  0  0  0  0  0
    7.8917   -0.0917    0.0000 O   0  0  0  0  0  0  0  0  0  0  0  0
    6.1500   -1.7792    0.0000 O   0  0  0  0  0  0  0  0  0  0  0  0
    2.8625   -1.6542    0.0000 C   0  0  0  0  0  0  0  0  0  0  0  0
    3.5792    0.3958    0.0000 C   0  0  0  0  0  0  0  0  0  0  0  0
    2.1542    0.3958    0.0000 C   0  0  0  0  0  0  0  0  0  0  0  0
    4.3750   -0.2042    0.0000 C   0  0  0  0  0  0  0  0  0  0  0  0
    1.3542   -0.2042    0.0000 C   0  0  0  0  0  0  0  0  0  0  0  0
    1.7417   -1.1417    0.0000 C   0  0  0  0  0  0  0  0  0  0  0  0
    3.9875   -1.1417    0.0000 C   0  0  0  0  0  0  0  0  0  0  0  0
    2.8667    0.8208    0.0000 C   0  0  0  0  0  0  0  0  0  0  0  0
  2  1  1  0
  4  1  1  0
  5  2  1  0
  6  3  1  0
  7  3  1  0
  8  5  2  0
  9  4  2  0
 10  1  1  0
 11  2  1  0
 12  5  1  0
 13  4  1  0
 14  3  1  0
 15  7  1  0
 16  6  1  0
 17  7  1  0
 18  6  1  0
 19  6  1  0
 20  7  1  0
 21 15  1  0
 16 21  1  0
M  END
>  <ID>  (1321) 


>  <MOLENAME>  (1321) 
PEMPIDINE TARTRATE

>  <therap>  (1321) 
ganglionic blocker, antihypertensive

>  <ref>  (1321) 
Br J Pharmacol Chemother 13:339 (1958); Nature 184:554 (1959); Br J Pharmacol 14:202 (1959); Br Med J 1:13 (1961)

>  <cas#>  (1321) 
79-55-0

>  <source>  (1321) 
synthetic

>  <status>  (1321) 
INN, BAN

>  <tradename>  (1321) 
nan

>  <SMILES>  (1321) 
CN1C(C)(C)CCCC1(C)C

>  <standardized_failed>  (1321) 
False

$$$$

     RDKit          2D

 22 21  0  0  0  0  0  0  0  0999 V2000
    6.0667   -0.2667    0.0000 C   0  0  0  0  0  0  0  0  0  0  0  0
    5.3542   -0.6792    0.0000 C   0  0  0  0  0  0  0  0  0  0  0  0
    4.6417   -0.2750    0.0000 C   0  0  0  0  0  0  0  0  0  0  0  0
    3.2167   -0.2750    0.0000 C   0  0  0  0  0  0  0  0  0  0  0  0
    3.9292   -0.6875    0.0000 C   0  0  0  0  0  0  0  0  0  0  0  0
    6.0667    0.5583    0.0000 O   0  0  0  0  0  0  0  0  0  0  0  0
    6.7792   -0.6750    0.0000 O   0  0  0  0  0  0  0  0  0  0  0  0
   -1.0583   -0.2875    0.0000 C   0  0  0  0  0  0  0  0  0  0  0  0
   -1.0583    0.5375    0.0000 O   0  0  0  0  0  0  0  0  0  0  0  0
    0.3667   -0.2875    0.0000 C   0  0  0  0  0  0  0  0  0  0  0  0
    6.7792   -1.5000    0.0000 C   0  0  0  0  0  0  0  0  0  0  0  0
    2.5042   -0.6875    0.0000 C   0  0  0  0  0  0  0  0  0  0  0  0
   -0.3458   -0.7000    0.0000 C   0  0  0  0  0  0  0  0  0  0  0  0
    4.6417    0.5500    0.0000 C   0  0  0  0  0  0  0  0  0  0  0  0
   -1.7708   -0.7000    0.0000 C   0  0  0  0  0  0  0  0  0  0  0  0
   -1.2708   -1.0792    0.0000 C   0  0  0  0  0  0  0  0  0  0  0  0
    1.7917   -0.2792    0.0000 C   0  0  0  0  0  0  0  0  0  0  0  0
    1.0792   -0.6917    0.0000 C   0  0  0  0  0  0  0  0  0  0  0  0
   -0.3458    0.9500    0.0000 C   0  0  0  0  0  0  0  0  0  0  0  0
    6.0667   -1.9167    0.0000 C   0  0  0  0  0  0  0  0  0  0  0  0
    7.5000   -1.9125    0.0000 C   0  0  0  0  0  0  0  0  0  0  0  0
    1.7917    0.5458    0.0000 C   0  0  0  0  0  0  0  0  0  0  0  0
  2  1  1  0
  3  2  2  0
  4  5  2  0
  5  3  1  0
  6  1  2  0
  7  1  1  0
  8 13  1  0
  9  8  1  0
 10 18  1  0
 11  7  1  0
 12  4  1  0
 13 10  1  0
 14  3  1  0
 15  8  1  0
 16  8  1  0
 17 12  1  0
 18 17  1  0
 19  9  1  0
 20 11  1  0
 21 11  1  0
 17 22  1  6
M  END
>  <ID>  (1322) 


>  <MOLENAME>  (1322) 
METHOPRENE (S)

>  <therap>  (1322) 
ectoparasiticide

>  <ref>  (1322) 
Pestic. Sci. (1997), 51(4), 443-449; J. Insect Physiol. (1989), 35(6), 513-17; J. Agric. Food Chem. (1978), 26(3), 542-50

>  <cas#>  (1322) 
40596-69-8

>  <source>  (1322) 
synthetic

>  <status>  (1322) 
INN

>  <tradename>  (1322) 
nan

>  <SMILES>  (1322) 
COC(C)(C)CCC[C@H](C)C/C=C/C(C)=C/C(=O)OC(C)C

>  <standardized_failed>  (1322) 
False

$$$$

     RDKit          2D

 20 23  0  0  0  0  0  0  0  0999 V2000
    6.2792   -3.3917    0.0000 C   0  0  0  0  0  0  0  0  0  0  0  0
    5.8417   -3.8417    0.0000 C   0  0  0  0  0  0  0  0  0  0  0  0
    6.9667   -3.6542    0.0000 C   0  0  0  0  0  0  0  0  0  0  0  0
    5.8292   -4.5667    0.0000 O   0  0  0  0  0  0  0  0  0  0  0  0
    5.6792   -2.9292    0.0000 O   0  0  0  0  0  0  0  0  0  0  0  0
    5.0917   -3.8417    0.0000 O   0  0  0  0  0  0  0  0  0  0  0  0
    6.5042   -4.8292    0.0000 C   0  0  0  0  0  0  0  0  0  0  0  0
    6.1667   -2.6792    0.0000 C   0  0  0  0  0  0  0  0  0  0  0  0
    4.4542   -3.4042    0.0000 C   0  0  0  0  0  0  0  0  0  0  0  0
    7.0792   -4.3792    0.0000 C   0  0  0  0  0  0  0  0  0  0  0  0
    5.1792   -3.3042    0.0000 O   0  0  0  0  0  0  0  0  0  0  0  0
    7.5292   -3.1917    0.0000 C   0  0  0  0  0  0  0  0  0  0  0  0
    5.3667   -2.3292    0.0000 C   0  0  0  0  0  0  0  0  0  0  0  0
    6.7292   -2.2042    0.0000 C   0  0  0  0  0  0  0  0  0  0  0  0
    7.4167   -2.4667    0.0000 C   0  0  0  0  0  0  0  0  0  0  0  0
    4.6542   -2.6542    0.0000 C   0  0  0  0  0  0  0  0  0  0  0  0
    6.6167   -5.5542    0.0000 O   0  0  0  0  0  0  0  0  0  0  0  0
    3.7042   -3.7417    0.0000 C   0  0  0  0  0  0  0  0  0  0  0  0
    7.7792   -4.5667    0.0000 C   0  0  0  0  0  0  0  0  0  0  0  0
    6.7292   -1.4792    0.0000 C   0  0  0  0  0  0  0  0  0  0  0  0
  2  1  1  0
  3  1  1  0
  2  4  1  6
  1  5  1  6
  6  2  1  0
  7 10  1  0
  8  1  1  0
  9 11  1  0
 10  3  1  0
 11  5  1  0
  3 12  1  1
  8 13  1  1
 14  8  1  0
 15 14  1  0
 16 13  1  0
 17  7  1  0
  9 18  1  6
 10 19  1  1
 14 20  1  6
 15 12  1  0
  9 16  1  0
  6  9  1  0
  7  4  1  0
M  END
>  <ID>  (1323) 


>  <MOLENAME>  (1323) 
ARTENIMOL

>  <therap>  (1323) 
antimalarial, antiinflammatory

>  <ref>  (1323) 
Med Res Rev 7: 29 (1987); Am J Trop Med Hyg 61:187 (199); Trends Pharmacol Sci 20:199 (1999)

>  <cas#>  (1323) 
81496-81-3

>  <source>  (1323) 
semisynthetic; dihydroartemisinin

>  <status>  (1323) 
INN

>  <tradename>  (1323) 
nan

>  <SMILES>  (1323) 
C[C@@H]1CC[C@H]2[C@@H](C)C(O)O[C@@H]3O[C@@]4(C)CC[C@@H]1[C@@]23OO4

>  <standardized_failed>  (1323) 
False

$$$$

     RDKit          2D

 20 21  0  0  0  0  0  0  0  0999 V2000
    0.0250   -0.4292    0.0000 C   0  0  0  0  0  0  0  0  0  0  0  0
   -0.7583   -0.1750    0.0000 N   0  0  0  0  0  0  0  0  0  0  0  0
    0.6875    0.0583    0.0000 O   0  0  0  0  0  0  0  0  0  0  0  0
    0.2750   -1.2167    0.0000 C   0  0  0  0  0  0  0  0  0  0  0  0
    1.3542   -0.4292    0.0000 C   0  0  0  0  0  0  0  0  0  0  0  0
    4.1542   -1.0292    0.0000 C   0  0  0  0  0  0  0  0  0  0  0  0
    2.7542   -0.7292    0.0000 N   0  0  0  0  0  0  0  0  0  0  0  0
    1.1000   -1.2167    0.0000 C   0  0  0  0  0  0  0  0  0  0  0  0
   -0.9333    0.6333    0.0000 O   0  0  0  0  0  0  0  0  0  0  0  0
   -1.3708   -0.7250    0.0000 O   0  0  0  0  0  0  0  0  0  0  0  0
    2.1417   -0.1750    0.0000 C   0  0  0  0  0  0  0  0  0  0  0  0
    4.9375   -0.7750    0.0000 C   0  0  0  0  0  0  0  0  0  0  0  0
    3.5417   -0.4750    0.0000 N   0  0  0  0  0  0  0  0  0  0  0  0
    3.9792   -1.8292    0.0000 O   0  0  0  0  0  0  0  0  0  0  0  0
    5.5500   -1.3292    0.0000 C   0  0  0  0  0  0  0  0  0  0  0  0
    5.1042    0.0333    0.0000 C   0  0  0  0  0  0  0  0  0  0  0  0
    6.5042   -0.2667    0.0000 C   0  0  0  0  0  0  0  0  0  0  0  0
    5.8875    0.2875    0.0000 C   0  0  0  0  0  0  0  0  0  0  0  0
    6.3292   -1.0750    0.0000 C   0  0  0  0  0  0  0  0  0  0  0  0
    7.2917   -0.0125    0.0000 O   0  0  0  0  0  0  0  0  0  0  0  0
  2  1  1  0
  3  1  1  0
  4  1  2  0
  5  3  1  0
  6 13  1  0
  7 11  2  0
  8  4  1  0
  9  2  1  0
 10  2  2  0
 11  5  1  0
 12  6  1  0
 13  7  1  0
 14  6  2  0
 15 12  2  0
 16 12  1  0
 17 18  1  0
 18 16  2  0
 19 15  1  0
 20 17  1  0
  8  5  2  0
 19 17  2  0
M  CHG  2   2   1   9  -1
M  END
>  <ID>  (1324) 


>  <MOLENAME>  (1324) 
NIFUROXAZIDE

>  <therap>  (1324) 
antiseptic

>  <ref>  (1324) 
Ann Pharm Fr 21:287 (1963)

>  <cas#>  (1324) 
965-52-6

>  <source>  (1324) 
synthetic; RC-27109

>  <status>  (1324) 
INN

>  <tradename>  (1324) 
nan

>  <SMILES>  (1324) 
O=C(N/N=C/c1ccc([N+](=O)[O-])o1)c1ccc(O)cc1

>  <standardized_failed>  (1324) 
False

$$$$

     RDKit          2D

  9  7  0  0  0  0  0  0  0  0999 V2000
    6.4917   -4.6375    0.0000 C   0  0  0  0  0  0  0  0  0  0  0  0
    5.8417   -5.0125    0.0000 C   0  0  0  0  0  0  0  0  0  0  0  0
    7.1375   -5.0125    0.0000 O   0  0  0  0  0  0  0  0  0  0  0  0
    5.1917   -4.6375    0.0000 N   0  0  0  0  0  0  0  0  0  0  0  0
    6.4875   -3.8875    0.0000 O   0  0  0  0  0  0  0  0  0  0  0  0
    5.2000   -6.1375    0.0000 S   0  0  0  0  0  0  0  0  0  0  0  0
    3.2667   -4.5292    0.0000 Cl  0  0  0  0  0  0  0  0  0  0  0  0
    5.8417   -5.7625    0.0000 C   0  0  0  0  0  0  0  0  0  0  0  0
    7.1375   -3.5125    0.0000 C   0  0  0  0  0  0  0  0  0  0  0  0
  2  1  1  0
  3  1  2  0
  4  2  1  0
  5  1  1  0
  6  8  1  0
  8  2  1  0
  9  5  1  0
M  END
>  <ID>  (1325) 


>  <MOLENAME>  (1325) 
MECYSTEINE HYDROCHLORIDE

>  <therap>  (1325) 
mucolytic

>  <ref>  (1325) 
Mycopathologia (2009), 168(3), 125-134; Pharmacology (1971), 5(6), 359-71; J. Dermatol. Sci. (1990), 1(1), 39-45,

>  <cas#>  (1325) 
2485-62-3, 18598-63-5 [hydrochloride]

>  <source>  (1325) 
synthetic

>  <status>  (1325) 
INN, BAN

>  <tradename>  (1325) 
nan

>  <SMILES>  (1325) 
COC(=O)C(N)CS

>  <standardized_failed>  (1325) 
False

$$$$

     RDKit          2D

 26 26  0  0  0  0  0  0  0  0999 V2000
    8.0917   -5.4667    0.0000 C   0  0  0  0  0  0  0  0  0  0  0  0
    4.2042   -5.4667    0.0000 C   0  0  0  0  0  0  0  0  0  0  0  0
    7.4417   -5.0917    0.0000 C   0  0  0  0  0  0  0  0  0  0  0  0
    7.4417   -4.3417    0.0000 C   0  0  0  0  0  0  0  0  0  0  0  0
    3.5542   -5.0917    0.0000 O   0  0  0  0  0  0  0  0  0  0  0  0
    4.2042   -6.2167    0.0000 C   0  0  0  0  0  0  0  0  0  0  0  0
    6.7917   -3.9667    0.0000 C   0  0  0  0  0  0  0  0  0  0  0  0
    8.6917   -5.8042    0.0000 F   0  0  0  0  0  0  0  0  0  0  0  0
    8.2167   -6.2375    0.0000 F   0  0  0  0  0  0  0  0  0  0  0  0
    8.8250   -5.1875    0.0000 F   0  0  0  0  0  0  0  0  0  0  0  0
    6.7917   -3.2167    0.0000 C   0  0  0  0  0  0  0  0  0  0  0  0
    4.8542   -5.0917    0.0000 O   0  0  0  0  0  0  0  0  0  0  0  0
    5.5000   -3.2167    0.0000 N   0  0  0  0  0  0  0  0  0  0  0  0
    3.3917   -2.9667    0.0000 Cl  0  0  0  0  0  0  0  0  0  0  0  0
    6.7917   -5.4667    0.0000 C   0  0  0  0  0  0  0  0  0  0  0  0
    6.1417   -2.8417    0.0000 C   0  0  0  0  0  0  0  0  0  0  0  0
    6.1500   -5.0917    0.0000 C   0  0  0  0  0  0  0  0  0  0  0  0
    6.1500   -4.3417    0.0000 C   0  0  0  0  0  0  0  0  0  0  0  0
    4.8542   -6.5917    0.0000 C   0  0  0  0  0  0  0  0  0  0  0  0
    3.5625   -6.5917    0.0000 C   0  0  0  0  0  0  0  0  0  0  0  0
    5.5000   -3.9667    0.0000 C   0  0  0  0  0  0  0  0  0  0  0  0
    4.8542   -4.3417    0.0000 C   0  0  0  0  0  0  0  0  0  0  0  0
    6.1417   -2.0917    0.0000 C   0  0  0  0  0  0  0  0  0  0  0  0
    4.8542   -7.3417    0.0000 C   0  0  0  0  0  0  0  0  0  0  0  0
    3.5625   -7.3417    0.0000 C   0  0  0  0  0  0  0  0  0  0  0  0
    4.2042   -7.7167    0.0000 C   0  0  0  0  0  0  0  0  0  0  0  0
  2 12  1  0
  3  1  1  0
  4  3  2  0
  5  2  2  0
  6  2  1  0
  7  4  1  0
  8  1  1  0
  9  1  1  0
 10  1  1  0
 11  7  1  0
 12 22  1  0
 13 16  1  0
 15  3  1  0
 16 11  1  0
 17 15  2  0
 18 17  1  0
 19  6  2  0
 20  6  1  0
 21 13  1  0
 22 21  1  0
 23 16  1  0
 24 19  1  0
 25 20  2  0
 26 24  2  0
 18  7  2  0
 25 26  1  0
M  END
>  <ID>  (1326) 


>  <MOLENAME>  (1326) 
BENFLUOREX HYDROCHLORIDE

>  <therap>  (1326) 
antihyperlipoproteinemic

>  <ref>  (1326) 
J Pharm Pharmacol 23:950 (1971); 24:281 (1972); 28:670 (1976); Biochem J 166:639 (1977)

>  <cas#>  (1326) 
23602-78-0

>  <source>  (1326) 
synthetic

>  <status>  (1326) 
INN, BAN

>  <tradename>  (1326) 
MINOLIP

>  <SMILES>  (1326) 
CC(Cc1cccc(C(F)(F)F)c1)NCCOC(=O)c1ccccc1

>  <standardized_failed>  (1326) 
False

$$$$

     RDKit          2D

 23 25  0  0  0  0  0  0  0  0999 V2000
    0.4625   -1.8292    0.0000 C   0  0  0  0  0  0  0  0  0  0  0  0
    4.1042   -0.6125    0.0000 C   0  0  0  0  0  0  0  0  0  0  0  0
   -0.3208   -1.5792    0.0000 N   0  0  0  0  0  0  0  0  0  0  0  0
    3.9292   -1.4167    0.0000 N   0  0  0  0  0  0  0  0  0  0  0  0
    4.9167   -0.5292    0.0000 O   0  0  0  0  0  0  0  0  0  0  0  0
    1.1250   -1.3500    0.0000 O   0  0  0  0  0  0  0  0  0  0  0  0
    3.2167   -1.8292    0.0000 N   0  0  0  0  0  0  0  0  0  0  0  0
    5.2542   -1.2792    0.0000 C   0  0  0  0  0  0  0  0  0  0  0  0
    0.7125   -2.6167    0.0000 C   0  0  0  0  0  0  0  0  0  0  0  0
    4.6417   -1.8292    0.0000 C   0  0  0  0  0  0  0  0  0  0  0  0
    1.7917   -1.8292    0.0000 C   0  0  0  0  0  0  0  0  0  0  0  0
    2.5042   -1.4167    0.0000 C   0  0  0  0  0  0  0  0  0  0  0  0
    1.5375   -2.6167    0.0000 C   0  0  0  0  0  0  0  0  0  0  0  0
    6.3167   -2.2375    0.0000 N   0  0  0  0  0  0  0  0  0  0  0  0
   -0.4958   -0.7667    0.0000 O   0  0  0  0  0  0  0  0  0  0  0  0
   -0.9375   -2.1292    0.0000 O   0  0  0  0  0  0  0  0  0  0  0  0
    3.5542   -0.0000    0.0000 O   0  0  0  0  0  0  0  0  0  0  0  0
    6.0625   -1.4542    0.0000 C   0  0  0  0  0  0  0  0  0  0  0  0
    6.8167   -3.8042    0.0000 O   0  0  0  0  0  0  0  0  0  0  0  0
    7.1250   -2.4042    0.0000 C   0  0  0  0  0  0  0  0  0  0  0  0
    5.7625   -2.8417    0.0000 C   0  0  0  0  0  0  0  0  0  0  0  0
    6.0125   -3.6292    0.0000 C   0  0  0  0  0  0  0  0  0  0  0  0
    7.3750   -3.1917    0.0000 C   0  0  0  0  0  0  0  0  0  0  0  0
  2  4  1  0
  3  1  1  0
  4  7  1  0
  5  2  1  0
  6  1  1  0
  7 12  2  0
  8 10  1  0
  9  1  2  0
 10  4  1  0
 11  6  1  0
 12 11  1  0
 13  9  1  0
 14 18  1  0
 15  3  1  0
 16  3  2  0
 17  2  2  0
 18  8  1  0
 19 22  1  0
 20 14  1  0
 21 14  1  0
 22 21  1  0
 23 20  1  0
 13 11  2  0
  8  5  1  0
 23 19  1  0
M  CHG  2   3   1  15  -1
M  END
>  <ID>  (1327) 


>  <MOLENAME>  (1327) 
FURALTADONE

>  <therap>  (1327) 
antibacterial

>  <ref>  (1327) 
N. Engl. J. Med. (1960), 263, 927-34; Antibiot. Annu. (1960), 776-84; J. Antimicrob. Chemother. (2000), 46(6), 917-9

>  <cas#>  (1327) 
139-91-3

>  <source>  (1327) 
synthetic; NF-260

>  <status>  (1327) 
INN, BAN

>  <tradename>  (1327) 
nan

>  <SMILES>  (1327) 
O=C1OC(CN2CCOCC2)CN1/N=C/c1ccc([N+](=O)[O-])o1

>  <standardized_failed>  (1327) 
False

$$$$

     RDKit          2D

 10 10  0  0  0  0  0  0  0  0999 V2000
    4.8917   -2.3917    0.0000 C   0  0  0  0  0  0  0  0  0  0  0  0
    5.6125   -2.8042    0.0000 N   0  0  0  0  0  0  0  0  0  0  0  0
    4.1792   -2.8125    0.0000 N   0  0  0  0  0  0  0  0  0  0  0  0
    4.8917   -1.5667    0.0000 N   0  0  0  0  0  0  0  0  0  0  0  0
    4.8917   -4.0500    0.0000 C   0  0  0  0  0  0  0  0  0  0  0  0
    5.6125   -3.6375    0.0000 C   0  0  0  0  0  0  0  0  0  0  0  0
    4.1792   -3.6375    0.0000 C   0  0  0  0  0  0  0  0  0  0  0  0
    5.6042   -1.1542    0.0000 C   0  0  0  0  0  0  0  0  0  0  0  0
    5.6042   -0.3292    0.0000 C   0  0  0  0  0  0  0  0  0  0  0  0
    6.3167   -1.5667    0.0000 C   0  0  0  0  0  0  0  0  0  0  0  0
  2  1  2  0
  3  1  1  0
  4  1  1  0
  5  7  1  0
  6  2  1  0
  7  3  2  0
  8  4  1  0
  9  8  1  0
 10  8  1  0
  5  6  2  0
M  END
>  <ID>  (1328) 


>  <MOLENAME>  (1328) 
ISAXONINE

>  <therap>  (1328) 
nerve growth stimulant

>  <ref>  (1328) 
J Pharmacol Exp Ther 229:851 (1984); J Neurol Neurosurg Psychiatry 48:933 (1985)

>  <cas#>  (1328) 
4214-72-6

>  <source>  (1328) 
synthetic; hepatotoxic at clinical dose (1500mg)

>  <status>  (1328) 
INN

>  <tradename>  (1328) 
nan

>  <SMILES>  (1328) 
CC(C)Nc1ncccn1

>  <standardized_failed>  (1328) 
False

$$$$

     RDKit          2D

 24 24  0  0  0  0  0  0  0  0999 V2000
    3.4542   -2.7417    0.0000 C   0  0  0  0  0  0  0  0  0  0  0  0
    3.4542   -3.5667    0.0000 C   0  0  0  0  0  0  0  0  0  0  0  0
    4.1667   -3.9792    0.0000 C   0  0  0  0  0  0  0  0  0  0  0  0
    4.1667   -2.3292    0.0000 C   0  0  0  0  0  0  0  0  0  0  0  0
    4.8792   -3.5667    0.0000 C   0  0  0  0  0  0  0  0  0  0  0  0
    4.8792   -2.7417    0.0000 C   0  0  0  0  0  0  0  0  0  0  0  0
    4.1667   -1.5042    0.0000 O   0  0  0  0  0  0  0  0  0  0  0  0
    4.1667   -4.8042    0.0000 O   0  0  0  0  0  0  0  0  0  0  0  0
    2.7417   -2.3292    0.0000 O   0  0  0  0  0  0  0  0  0  0  0  0
    2.7417   -3.9792    0.0000 O   0  0  0  0  0  0  0  0  0  0  0  0
    5.5917   -2.3375    0.0000 C   0  0  0  0  0  0  0  0  0  0  0  0
    5.5917   -3.9792    0.0000 C   0  0  0  0  0  0  0  0  0  0  0  0
   12.0000   -3.5917    0.0000 O   0  0  0  0  0  0  0  0  0  0  0  0
    2.7417   -4.8042    0.0000 C   0  0  0  0  0  0  0  0  0  0  0  0
    2.7375   -1.5042    0.0000 C   0  0  0  0  0  0  0  0  0  0  0  0
   12.0042   -2.7667    0.0000 C   0  0  0  0  0  0  0  0  0  0  0  0
    6.3042   -2.7500    0.0000 C   0  0  0  0  0  0  0  0  0  0  0  0
   11.2917   -2.3542    0.0000 C   0  0  0  0  0  0  0  0  0  0  0  0
    9.8667   -2.3500    0.0000 C   0  0  0  0  0  0  0  0  0  0  0  0
   10.5792   -2.7625    0.0000 C   0  0  0  0  0  0  0  0  0  0  0  0
    7.0167   -2.3417    0.0000 C   0  0  0  0  0  0  0  0  0  0  0  0
    7.7292   -2.7542    0.0000 C   0  0  0  0  0  0  0  0  0  0  0  0
    8.4417   -2.3417    0.0000 C   0  0  0  0  0  0  0  0  0  0  0  0
    9.1542   -2.7542    0.0000 C   0  0  0  0  0  0  0  0  0  0  0  0
  2  1  2  0
  3  2  1  0
  4  1  1  0
  5  6  2  0
  6  4  1  0
  7  4  2  0
  8  3  2  0
  9  1  1  0
 10  2  1  0
 11  6  1  0
 12  5  1  0
 13 16  1  0
 14 10  1  0
 15  9  1  0
 16 18  1  0
 17 11  1  0
 18 20  1  0
 19 24  1  0
 20 19  1  0
 21 17  1  0
 22 21  1  0
 23 22  1  0
 24 23  1  0
  3  5  1  0
M  END
>  <ID>  (1329) 


>  <MOLENAME>  (1329) 
IDEBENONE

>  <therap>  (1329) 
cognition enhancer, nootropic

>  <ref>  (1329) 
Chem Pharm Bull 30:2797 (1982); Biochemistry 21:4096 (1982)

>  <cas#>  (1329) 
58186-27-9

>  <source>  (1329) 
synthetic

>  <status>  (1329) 
INN, BAN

>  <tradename>  (1329) 
nan

>  <SMILES>  (1329) 
COC1=C(OC)C(=O)C(CCCCCCCCCCO)=C(C)C1=O

>  <standardized_failed>  (1329) 
False

$$$$

     RDKit          2D

 26 26  0  0  0  0  0  0  0  0999 V2000
    1.6125    0.1000    0.0000 C   0  0  0  0  0  0  0  0  0  0  0  0
    2.3167   -0.3042    0.0000 C   0  0  0  0  0  0  0  0  0  0  0  0
    5.1750   -0.3000    0.0000 N   0  0  0  0  0  0  0  0  0  0  0  0
    2.3167   -1.1292    0.0000 O   0  0  0  0  0  0  0  0  0  0  0  0
    0.9000   -0.3125    0.0000 C   0  0  0  0  0  0  0  0  0  0  0  0
    6.2292   -1.4667    0.0000 Br  0  0  0  0  0  0  0  0  0  0  0  0
    1.6042    0.9250    0.0000 C   0  0  0  0  0  0  0  0  0  0  0  0
    1.6042   -0.7250    0.0000 O   0  0  0  0  0  0  0  0  0  0  0  0
    3.0375    0.1083    0.0000 O   0  0  0  0  0  0  0  0  0  0  0  0
    3.7500   -0.3042    0.0000 C   0  0  0  0  0  0  0  0  0  0  0  0
    4.4625    0.1083    0.0000 C   0  0  0  0  0  0  0  0  0  0  0  0
    5.8875    0.1125    0.0000 C   0  0  0  0  0  0  0  0  0  0  0  0
    5.1750   -1.1250    0.0000 C   0  0  0  0  0  0  0  0  0  0  0  0
    5.8875   -0.7125    0.0000 C   0  0  0  0  0  0  0  0  0  0  0  0
    0.9000   -1.1292    0.0000 C   0  0  0  0  0  0  0  0  0  0  0  0
    0.1792    0.1083    0.0000 C   0  0  0  0  0  0  0  0  0  0  0  0
    2.3292    1.3458    0.0000 C   0  0  0  0  0  0  0  0  0  0  0  0
    0.9000    1.3375    0.0000 C   0  0  0  0  0  0  0  0  0  0  0  0
    6.6000   -0.2917    0.0000 C   0  0  0  0  0  0  0  0  0  0  0  0
    4.4625   -1.5375    0.0000 C   0  0  0  0  0  0  0  0  0  0  0  0
    0.1917   -1.5417    0.0000 C   0  0  0  0  0  0  0  0  0  0  0  0
   -0.5250   -0.3042    0.0000 C   0  0  0  0  0  0  0  0  0  0  0  0
    2.3292    2.1625    0.0000 C   0  0  0  0  0  0  0  0  0  0  0  0
    0.9000    2.1625    0.0000 C   0  0  0  0  0  0  0  0  0  0  0  0
    1.6167    2.5833    0.0000 C   0  0  0  0  0  0  0  0  0  0  0  0
   -0.5250   -1.1292    0.0000 C   0  0  0  0  0  0  0  0  0  0  0  0
  2  1  1  0
  3 11  1  0
  4  2  2  0
  5  1  1  0
  7  1  1  0
  8  1  1  0
  9  2  1  0
 10  9  1  0
 11 10  1  0
 12  3  1  0
 13  3  1  0
 14  3  1  0
 15  5  2  0
 16  5  1  0
 17  7  1  0
 18  7  1  0
 19 12  1  0
 20 13  1  0
 21 15  1  0
 22 16  2  0
 23 17  1  0
 24 18  1  0
 25 23  1  0
 26 21  2  0
 24 25  1  0
 22 26  1  0
M  CHG  2   3   1   6  -1
M  END
>  <ID>  (1330) 


>  <MOLENAME>  (1330) 
OXYPHENONIUM BROMIDE

>  <therap>  (1330) 
anticholinergic, anticonvulsant

>  <ref>  (1330) 
Brit J Ophthal 40:751 (1956); J Pharmacol Exp Ther 121:63 (1957)

>  <cas#>  (1330) 
50-10-2

>  <source>  (1330) 
synthetic; BA-5473, C-5473

>  <status>  (1330) 
INN, BAN

>  <tradename>  (1330) 
ANTRENYL

>  <SMILES>  (1330) 
CC[N+](C)(CC)CCOC(=O)C(O)(c1ccccc1)C1CCCCC1

>  <standardized_failed>  (1330) 
False

$$$$

     RDKit          2D

 21 22  0  0  0  0  0  0  0  0999 V2000
    3.5042   -2.1750    0.0000 S   0  0  0  0  0  0  0  0  0  0  0  0
    4.5792   -5.8125    0.0000 N   0  0  0  0  0  0  0  0  0  0  0  0
    4.2542   -2.5167    0.0000 N   0  0  0  0  0  0  0  0  0  0  0  0
    5.0792   -3.6792    0.0000 C   0  0  0  0  0  0  0  0  0  0  0  0
    4.3292   -3.3417    0.0000 C   0  0  0  0  0  0  0  0  0  0  0  0
    4.4917   -4.9875    0.0000 C   0  0  0  0  0  0  0  0  0  0  0  0
    5.1667   -4.5000    0.0000 C   0  0  0  0  0  0  0  0  0  0  0  0
    3.9042   -6.2917    0.0000 O   0  0  0  0  0  0  0  0  0  0  0  0
    5.7500   -3.1917    0.0000 O   0  0  0  0  0  0  0  0  0  0  0  0
    2.7500   -1.8250    0.0000 O   0  0  0  0  0  0  0  0  0  0  0  0
    3.8542   -1.4167    0.0000 O   0  0  0  0  0  0  0  0  0  0  0  0
    5.3375   -6.1542    0.0000 O   0  0  0  0  0  0  0  0  0  0  0  0
    3.6542   -3.8292    0.0000 C   0  0  0  0  0  0  0  0  0  0  0  0
    3.7417   -4.6542    0.0000 C   0  0  0  0  0  0  0  0  0  0  0  0
    3.1542   -2.9250    0.0000 C   0  0  0  0  0  0  0  0  0  0  0  0
    6.5042   -3.5292    0.0000 C   0  0  0  0  0  0  0  0  0  0  0  0
    7.1750   -3.0417    0.0000 C   0  0  0  0  0  0  0  0  0  0  0  0
    6.5917   -4.3500    0.0000 C   0  0  0  0  0  0  0  0  0  0  0  0
    7.3417   -4.6875    0.0000 C   0  0  0  0  0  0  0  0  0  0  0  0
    7.9292   -3.3792    0.0000 C   0  0  0  0  0  0  0  0  0  0  0  0
    8.0167   -4.1917    0.0000 C   0  0  0  0  0  0  0  0  0  0  0  0
  2  6  1  0
  3  1  1  0
  4  5  2  0
  5  3  1  0
  6 14  1  0
  7  4  1  0
  8  2  1  0
  9  4  1  0
 10  1  2  0
 11  1  2  0
 12  2  2  0
 13  5  1  0
 14 13  2  0
 15  1  1  0
 16  9  1  0
 17 16  2  0
 18 16  1  0
 19 18  2  0
 20 17  1  0
 21 19  1  0
  6  7  2  0
 20 21  2  0
M  CHG  2   2   1   8  -1
M  END
>  <ID>  (1331) 


>  <MOLENAME>  (1331) 
NIMESULIDE

>  <therap>  (1331) 
antiinflammatory

>  <ref>  (1331) 
Rheumatology (1999), 38 Suppl 11-3; Inflammation Res. (1998), 47(2), 79-85; Arzneim. Forsch. (1995), 45(10), 1093-5,

>  <cas#>  (1331) 
51803-78-2

>  <source>  (1331) 
synthetic; R-805

>  <status>  (1331) 
INN, BAN

>  <tradename>  (1331) 
nan

>  <SMILES>  (1331) 
CS(=O)(=O)Nc1c(Oc2ccccc2)cc([N+](=O)[O-])cc1

>  <standardized_failed>  (1331) 
False

$$$$

     RDKit          2D

 27 26  0  0  0  0  0  0  0  0999 V2000
    1.4792   -2.6875    0.0000 C   0  0  0  0  0  0  0  0  0  0  0  0
    5.7542   -2.6792    0.0000 C   0  0  0  0  0  0  0  0  0  0  0  0
    5.0417   -2.2667    0.0000 O   0  0  0  0  0  0  0  0  0  0  0  0
    2.1917   -2.2750    0.0000 O   0  0  0  0  0  0  0  0  0  0  0  0
    3.6167   -3.9250    0.0000 C   0  0  0  0  0  0  0  0  0  0  0  0
    2.9042   -2.6875    0.0000 C   0  0  0  0  0  0  0  0  0  0  0  0
    4.3292   -2.6792    0.0000 C   0  0  0  0  0  0  0  0  0  0  0  0
    0.7667   -2.2792    0.0000 N   0  0  0  0  0  0  0  0  0  0  0  0
    6.4667   -2.2667    0.0000 N   0  0  0  0  0  0  0  0  0  0  0  0
    3.6167   -2.2667    0.0000 C   0  0  0  0  0  0  0  0  0  0  0  0
    2.9042   -3.5125    0.0000 C   0  0  0  0  0  0  0  0  0  0  0  0
    4.3292   -3.5125    0.0000 C   0  0  0  0  0  0  0  0  0  0  0  0
    1.4792   -3.5125    0.0000 O   0  0  0  0  0  0  0  0  0  0  0  0
    5.7542   -3.5042    0.0000 O   0  0  0  0  0  0  0  0  0  0  0  0
    4.3292   -5.9792    0.0000 N   0  0  0  0  0  0  0  0  0  0  0  0
    3.6167   -4.7417    0.0000 C   0  0  0  0  0  0  0  0  0  0  0  0
    5.0417   -6.3917    0.0000 C   0  0  0  0  0  0  0  0  0  0  0  0
    4.3292   -5.1542    0.0000 C   0  0  0  0  0  0  0  0  0  0  0  0
    5.9917   -4.9917    0.0000 Cl  0  0  0  0  0  0  0  0  0  0  0  0
    2.9000   -5.1542    0.0000 O   0  0  0  0  0  0  0  0  0  0  0  0
    0.7625   -1.4542    0.0000 C   0  0  0  0  0  0  0  0  0  0  0  0
    6.4667   -1.4417    0.0000 C   0  0  0  0  0  0  0  0  0  0  0  0
    0.0542   -2.6917    0.0000 C   0  0  0  0  0  0  0  0  0  0  0  0
    7.1792   -2.6750    0.0000 C   0  0  0  0  0  0  0  0  0  0  0  0
    5.7542   -6.8042    0.0000 C   0  0  0  0  0  0  0  0  0  0  0  0
    5.0417   -7.2125    0.0000 C   0  0  0  0  0  0  0  0  0  0  0  0
    5.7542   -5.9792    0.0000 C   0  0  0  0  0  0  0  0  0  0  0  0
  2  3  1  0
  3  7  1  0
  4  1  1  0
  5 11  2  0
  6  4  1  0
  7 10  1  0
  8  1  1  0
  9  2  1  0
 10  6  2  0
 11  6  1  0
 12  5  1  0
 13  1  2  0
 14  2  2  0
 15 18  1  0
 16  5  1  0
 17 15  1  0
 18 16  1  0
 20 16  1  0
 21  8  1  0
 22  9  1  0
 23  8  1  0
 24  9  1  0
 25 17  1  0
 26 17  1  0
 27 17  1  0
  7 12  2  0
M  END
>  <ID>  (1332) 


>  <MOLENAME>  (1332) 
BAMBUTEROL HYDROCHLORIDE

>  <therap>  (1332) 
beta adrenergic agonist, bronchodilator, cholinesterase inhibitor

>  <ref>  (1332) 
Acta Anaeth Scand 34:595 (1990); Chest c103:771 (1993)

>  <cas#>  (1332) 
81732-46-9

>  <source>  (1332) 
synthetic

>  <status>  (1332) 
INN, BAN

>  <tradename>  (1332) 
BAMBEC

>  <SMILES>  (1332) 
CN(C)C(=O)Oc1cc(OC(=O)N(C)C)cc(C(O)CNC(C)(C)C)c1

>  <standardized_failed>  (1332) 
False

$$$$

     RDKit          2D

 23 23  0  0  0  0  0  0  0  0999 V2000
    3.4250   -3.6208    0.0000 C   0  0  0  0  0  0  0  0  0  0  0  0
    3.4250   -4.4500    0.0000 C   0  0  0  0  0  0  0  0  0  0  0  0
    2.7083   -3.2083    0.0000 C   0  0  0  0  0  0  0  0  0  0  0  0
    2.7083   -4.8625    0.0000 C   0  0  0  0  0  0  0  0  0  0  0  0
    1.9958   -3.6250    0.0000 C   0  0  0  0  0  0  0  0  0  0  0  0
    4.1375   -3.2042    0.0000 C   0  0  0  0  0  0  0  0  0  0  0  0
    6.9875   -3.1958    0.0000 N   0  0  0  0  0  0  0  0  0  0  0  0
    1.9958   -4.4500    0.0000 C   0  0  0  0  0  0  0  0  0  0  0  0
    4.1333   -2.3792    0.0000 O   0  0  0  0  0  0  0  0  0  0  0  0
    4.1417   -4.8625    0.0000 O   0  0  0  0  0  0  0  0  0  0  0  0
    2.7042   -2.3833    0.0000 O   0  0  0  0  0  0  0  0  0  0  0  0
    6.6500   -4.6167    0.0000 Cl  0  0  0  0  0  0  0  0  0  0  0  0
    1.2792   -4.8625    0.0000 O   0  0  0  0  0  0  0  0  0  0  0  0
    6.2750   -3.6125    0.0000 C   0  0  0  0  0  0  0  0  0  0  0  0
    5.5625   -3.2042    0.0000 C   0  0  0  0  0  0  0  0  0  0  0  0
    7.1583   -2.3917    0.0000 C   0  0  0  0  0  0  0  0  0  0  0  0
    7.7000   -3.6042    0.0000 C   0  0  0  0  0  0  0  0  0  0  0  0
    4.8500   -3.6167    0.0000 C   0  0  0  0  0  0  0  0  0  0  0  0
    4.1417   -5.6875    0.0000 C   0  0  0  0  0  0  0  0  0  0  0  0
    1.9917   -1.9750    0.0000 C   0  0  0  0  0  0  0  0  0  0  0  0
    1.2792   -5.6875    0.0000 C   0  0  0  0  0  0  0  0  0  0  0  0
    8.3083   -3.0583    0.0000 C   0  0  0  0  0  0  0  0  0  0  0  0
    7.9792   -2.3083    0.0000 C   0  0  0  0  0  0  0  0  0  0  0  0
  2  1  2  0
  3  1  1  0
  4  2  1  0
  5  3  2  0
  6  1  1  0
  7 14  1  0
  8  4  2  0
  9  6  2  0
 10  2  1  0
 11  3  1  0
 13  8  1  0
 14 15  1  0
 15 18  1  0
 16  7  1  0
 17  7  1  0
 18  6  1  0
 19 10  1  0
 20 11  1  0
 21 13  1  0
 22 17  1  0
 23 16  1  0
  8  5  1  0
 23 22  1  0
M  END
>  <ID>  (1333) 


>  <MOLENAME>  (1333) 
BUFLOMEDIL HYDROCHLORIDE

>  <therap>  (1333) 
vasodilator (peripheral)

>  <ref>  (1333) 
  Therapie 30:207, 259 (1975); Drugs 33:430 (1987)

>  <cas#>  (1333) 
35543-24-9, 55837-25-7(base)

>  <source>  (1333) 
synthetic

>  <status>  (1333) 
INN, BAN

>  <tradename>  (1333) 
BUFEDIL

>  <SMILES>  (1333) 
COc1cc(OC)c(C(=O)CCCN2CCCC2)c(OC)c1

>  <standardized_failed>  (1333) 
False

$$$$

     RDKit          2D

 31 31  0  0  0  0  0  0  0  0999 V2000
    6.0542   -1.1958    0.0000 N   0  0  0  0  0  0  0  0  0  0  0  0
    5.5708   -1.8625    0.0000 C   0  0  0  0  0  0  0  0  0  0  0  0
    6.0542   -2.5333    0.0000 N   0  0  0  0  0  0  0  0  0  0  0  0
   10.4917   -3.0000    0.0000 C   0  0  0  0  0  0  0  0  0  0  0  0
    6.8375   -1.4500    0.0000 C   0  0  0  0  0  0  0  0  0  0  0  0
   10.4917   -2.3292    0.0000 C   0  0  0  0  0  0  0  0  0  0  0  0
   11.0667   -3.3292    0.0000 C   0  0  0  0  0  0  0  0  0  0  0  0
    6.8375   -2.2750    0.0000 O   0  0  0  0  0  0  0  0  0  0  0  0
    9.9167   -3.3292    0.0000 C   0  0  0  0  0  0  0  0  0  0  0  0
   11.0667   -1.9917    0.0000 C   0  0  0  0  0  0  0  0  0  0  0  0
   11.0667   -4.0000    0.0000 C   0  0  0  0  0  0  0  0  0  0  0  0
    7.5042   -0.9667    0.0000 C   0  0  0  0  0  0  0  0  0  0  0  0
    4.7458   -1.8625    0.0000 C   0  0  0  0  0  0  0  0  0  0  0  0
    9.3375   -3.0000    0.0000 O   0  0  0  0  0  0  0  0  0  0  0  0
   11.6458   -2.3292    0.0000 O   0  0  0  0  0  0  0  0  0  0  0  0
   11.6458   -4.3292    0.0000 O   0  0  0  0  0  0  0  0  0  0  0  0
   11.0542   -2.6500    0.0000 O   0  0  0  0  0  0  0  0  0  0  0  0
    8.2542   -1.3000    0.0000 C   0  0  0  0  0  0  0  0  0  0  0  0
    8.9167   -0.8167    0.0000 N   0  0  0  0  0  0  0  0  0  0  0  0
    9.9167   -4.0000    0.0000 O   0  0  0  0  0  0  0  0  0  0  0  0
   11.0667   -1.3292    0.0000 O   0  0  0  0  0  0  0  0  0  0  0  0
   10.4917   -4.3292    0.0000 O   0  0  0  0  0  0  0  0  0  0  0  0
    4.3333   -1.1500    0.0000 C   0  0  0  0  0  0  0  0  0  0  0  0
    4.3333   -2.5750    0.0000 C   0  0  0  0  0  0  0  0  0  0  0  0
    8.8333    0.0042    0.0000 C   0  0  0  0  0  0  0  0  0  0  0  0
    9.6667   -1.1500    0.0000 C   0  0  0  0  0  0  0  0  0  0  0  0
    9.5000    0.4917    0.0000 C   0  0  0  0  0  0  0  0  0  0  0  0
   10.3333   -0.6667    0.0000 C   0  0  0  0  0  0  0  0  0  0  0  0
    3.5083   -1.1542    0.0000 C   0  0  0  0  0  0  0  0  0  0  0  0
    3.5083   -2.5750    0.0000 C   0  0  0  0  0  0  0  0  0  0  0  0
    3.1000   -1.8667    0.0000 C   0  0  0  0  0  0  0  0  0  0  0  0
  2  1  1  0
  3  2  2  0
  5  1  2  0
  6  4  1  0
  7  4  1  0
  8  5  1  0
  9  4  1  0
 10  6  1  0
 11  7  1  0
 12  5  1  0
 13  2  1  0
 14  9  2  0
 15 10  2  0
 16 11  2  0
 17  4  1  0
 18 12  1  0
 19 18  1  0
 20  9  1  0
 21 10  1  0
 22 11  1  0
 23 13  2  0
 24 13  1  0
 25 19  1  0
 26 19  1  0
 27 25  1  0
 28 26  1  0
 29 23  1  0
 30 24  2  0
 31 30  1  0
  8  3  1  0
 31 29  2  0
M  END
>  <ID>  (1334) 


>  <MOLENAME>  (1334) 
OXOLAMINE CITRATE

>  <therap>  (1334) 
antitussive

>  <ref>  (1334) 
Arch. Int. Pharmacodyn. Ther. (1960), 129, 249-63; Br. J. Pharmacol. Chemother. (1961), 16, 209-17. ; Minerva Med. (1960), 4091-4.

>  <cas#>  (1334) 
959-14-8 (base)

>  <source>  (1334) 
synthetic; SKF-9976, AF-438

>  <status>  (1334) 
INN

>  <tradename>  (1334) 
nan

>  <SMILES>  (1334) 
CCN(CC)CCc1nc(-c2ccccc2)no1

>  <standardized_failed>  (1334) 
False

$$$$

     RDKit          2D

 18 17  0  0  0  0  0  0  0  0999 V2000
    9.4000   -4.2542    0.0000 S   0  0  0  0  0  0  0  0  0  0  0  0
    6.1875   -4.2542    0.0000 C   0  0  0  0  0  0  0  0  0  0  0  0
    6.5542   -4.9125    0.0000 N   0  0  0  0  0  0  0  0  0  0  0  0
    9.3917   -3.5667    0.0000 O   0  0  0  0  0  0  0  0  0  0  0  0
   10.0917   -4.2542    0.0000 O   0  0  0  0  0  0  0  0  0  0  0  0
    7.3042   -4.9167    0.0000 N   0  0  0  0  0  0  0  0  0  0  0  0
    6.5667   -3.6125    0.0000 O   0  0  0  0  0  0  0  0  0  0  0  0
    3.9292   -4.2375    0.0000 N   0  0  0  0  0  0  0  0  0  0  0  0
    5.4375   -4.2500    0.0000 C   0  0  0  0  0  0  0  0  0  0  0  0
    8.7042   -4.2542    0.0000 O   0  0  0  0  0  0  0  0  0  0  0  0
    9.3917   -4.9542    0.0000 O   0  0  0  0  0  0  0  0  0  0  0  0
    7.6750   -5.5750    0.0000 C   0  0  0  0  0  0  0  0  0  0  0  0
    4.3000   -4.8875    0.0000 C   0  0  0  0  0  0  0  0  0  0  0  0
    4.3125   -3.5875    0.0000 C   0  0  0  0  0  0  0  0  0  0  0  0
    5.0500   -4.9000    0.0000 C   0  0  0  0  0  0  0  0  0  0  0  0
    5.0625   -3.5917    0.0000 C   0  0  0  0  0  0  0  0  0  0  0  0
    7.2917   -6.2167    0.0000 C   0  0  0  0  0  0  0  0  0  0  0  0
    8.4250   -5.5792    0.0000 C   0  0  0  0  0  0  0  0  0  0  0  0
  3  2  1  0
  4  1  2  0
  5  1  2  0
  6  3  1  0
  7  2  2  0
  8 14  2  0
  9  2  1  0
 10  1  1  0
 11  1  1  0
 12  6  1  0
 13 15  2  0
 14 16  1  0
 15  9  1  0
 16  9  2  0
 17 12  1  0
 18 12  1  0
 13  8  1  0
M  END
>  <ID>  (1335) 


>  <MOLENAME>  (1335) 
IPRONIAZID SULFATE

>  <therap>  (1335) 
monoamine oxidase inhibitor, antidepressant

>  <ref>  (1335) 
Ann NY Acad Sci 80:626 (1959); Arch Intern Med.105:583 (1960); Anesthesiology 22:335 (1961)

>  <cas#>  (1335) 
54-92-2, 305-33-9 [as phosphate]

>  <source>  (1335) 
synthetic

>  <status>  (1335) 
INN, BAN

>  <tradename>  (1335) 
nan

>  <SMILES>  (1335) 
CC(C)NNC(=O)c1ccncc1

>  <standardized_failed>  (1335) 
False

$$$$

     RDKit          2D

 18 20  0  0  0  0  0  0  0  0999 V2000
    3.2500   -4.7875    0.0000 N   0  0  0  0  0  0  0  0  0  0  0  0
    3.2417   -3.4500    0.0000 N   0  0  0  0  0  0  0  0  0  0  0  0
    3.7333   -4.1167    0.0000 C   0  0  0  0  0  0  0  0  0  0  0  0
    2.4625   -4.5375    0.0000 C   0  0  0  0  0  0  0  0  0  0  0  0
    2.4583   -3.7125    0.0000 C   0  0  0  0  0  0  0  0  0  0  0  0
    3.5083   -5.5708    0.0000 C   0  0  0  0  0  0  0  0  0  0  0  0
    2.9625   -6.1875    0.0000 C   0  0  0  0  0  0  0  0  0  0  0  0
    1.8667   -7.4167    0.0000 C   0  0  0  0  0  0  0  0  0  0  0  0
    4.5583   -4.1125    0.0000 C   0  0  0  0  0  0  0  0  0  0  0  0
    1.3167   -8.0333    0.0000 Cl  0  0  0  0  0  0  0  0  0  0  0  0
    3.2208   -6.9667    0.0000 C   0  0  0  0  0  0  0  0  0  0  0  0
    2.1542   -6.0167    0.0000 C   0  0  0  0  0  0  0  0  0  0  0  0
    1.6042   -6.6333    0.0000 C   0  0  0  0  0  0  0  0  0  0  0  0
    2.6792   -7.5833    0.0000 C   0  0  0  0  0  0  0  0  0  0  0  0
    1.7417   -4.9542    0.0000 C   0  0  0  0  0  0  0  0  0  0  0  0
    1.7417   -3.3000    0.0000 C   0  0  0  0  0  0  0  0  0  0  0  0
    1.0292   -4.5417    0.0000 C   0  0  0  0  0  0  0  0  0  0  0  0
    1.0292   -3.7125    0.0000 C   0  0  0  0  0  0  0  0  0  0  0  0
  2  3  2  0
  3  1  1  0
  4  1  1  0
  5  4  2  0
  6  1  1  0
  7  6  1  0
  8 14  2  0
  9  3  1  0
 10  8  1  0
 11  7  2  0
 12  7  1  0
 13 12  2  0
 14 11  1  0
 15  4  1  0
 16  5  1  0
 17 15  2  0
 18 17  1  0
  5  2  1  0
 18 16  2  0
  8 13  1  0
M  END
>  <ID>  (1336) 


>  <MOLENAME>  (1336) 
CHLORMIDAZOLE

>  <therap>  (1336) 
antifungal

>  <ref>  (1336) 
Mykosen 1:162 (1958); Br Med J 1:1731 (1960)

>  <cas#>  (1336) 
3689-76-7

>  <source>  (1336) 
synthetic

>  <status>  (1336) 
INN, BAN

>  <tradename>  (1336) 
nan

>  <SMILES>  (1336) 
Cc1nc2c(cccc2)n1Cc1ccc(Cl)cc1

>  <standardized_failed>  (1336) 
False

$$$$

     RDKit          2D

 20 20  0  0  0  0  0  0  0  0999 V2000
    5.1000   -2.8667    0.0000 N   0  0  0  0  0  0  0  0  0  0  0  0
    5.8125   -2.4542    0.0000 C   0  0  0  0  0  0  0  0  0  0  0  0
    4.3875   -1.6292    0.0000 N   0  0  0  0  0  0  0  0  0  0  0  0
    5.8125   -1.6292    0.0000 C   0  0  0  0  0  0  0  0  0  0  0  0
    4.3875   -2.4542    0.0000 C   0  0  0  0  0  0  0  0  0  0  0  0
    5.1000   -1.2167    0.0000 C   0  0  0  0  0  0  0  0  0  0  0  0
    6.6000   -2.7042    0.0000 N   0  0  0  0  0  0  0  0  0  0  0  0
    6.6000   -1.3750    0.0000 N   0  0  0  0  0  0  0  0  0  0  0  0
    7.0792   -2.0375    0.0000 C   0  0  0  0  0  0  0  0  0  0  0  0
    3.6625   -2.8667    0.0000 O   0  0  0  0  0  0  0  0  0  0  0  0
    5.1000   -0.3917    0.0000 O   0  0  0  0  0  0  0  0  0  0  0  0
    8.7917   -1.4292    0.0000 N   0  0  0  0  0  0  0  0  0  0  0  0
    5.1000   -3.6917    0.0000 C   0  0  0  0  0  0  0  0  0  0  0  0
    3.6625   -1.2042    0.0000 C   0  0  0  0  0  0  0  0  0  0  0  0
    8.8042   -3.0792    0.0000 O   0  0  0  0  0  0  0  0  0  0  0  0
    9.5125   -1.8417    0.0000 C   0  0  0  0  0  0  0  0  0  0  0  0
    8.0792   -1.8500    0.0000 C   0  0  0  0  0  0  0  0  0  0  0  0
    8.0792   -1.0167    0.0000 C   0  0  0  0  0  0  0  0  0  0  0  0
    8.7917   -0.6042    0.0000 C   0  0  0  0  0  0  0  0  0  0  0  0
    9.5167   -2.6667    0.0000 C   0  0  0  0  0  0  0  0  0  0  0  0
  2  1  1  0
  3  5  1  0
  4  2  2  0
  5  1  1  0
  6  3  1  0
  7  2  1  0
  8  4  1  0
  9  7  2  0
 10  5  2  0
 11  6  2  0
 13  1  1  0
 14  3  1  0
 15 20  1  0
 16 12  1  0
 17 12  1  0
 18 12  1  0
 19 12  1  0
 20 16  1  0
  4  6  1  0
  9  8  1  0
M  CHG  2   8  -1  12   1
M  END
>  <ID>  (1337) 


>  <MOLENAME>  (1337) 
OXTRIPHYLLINE

>  <therap>  (1337) 
bronchodilator

>  <ref>  (1337) 
Respiration (1984), 45(2), 139-46; J. Allergy Clin. Immunol. (1983), 71(3), 317-23; Curr. Ther. Res. (1964), 6353-6

>  <cas#>  (1337) 
4499-40-5

>  <source>  (1337) 
synthetic

>  <status>  (1337) 
USP, INN, BAN, JAN

>  <tradename>  (1337) 
CHOLEDYL

>  <SMILES>  (1337) 
Cn1c(=O)c2c(nc[nH]2)n(C)c1=O

>  <standardized_failed>  (1337) 
False

$$$$

     RDKit          2D

 16 17  0  0  0  0  0  0  0  0999 V2000
    7.1375   -3.6542    0.0000 C   0  0  0  0  0  0  0  0  0  0  0  0
    6.4208   -3.2375    0.0000 O   0  0  0  0  0  0  0  0  0  0  0  0
    7.8542   -3.2458    0.0000 C   0  0  0  0  0  0  0  0  0  0  0  0
    7.9375   -2.4250    0.0000 N   0  0  0  0  0  0  0  0  0  0  0  0
    6.4208   -4.8958    0.0000 O   0  0  0  0  0  0  0  0  0  0  0  0
    5.7083   -3.6542    0.0000 C   0  0  0  0  0  0  0  0  0  0  0  0
    8.6042   -3.5833    0.0000 N   0  0  0  0  0  0  0  0  0  0  0  0
    7.1375   -4.4833    0.0000 C   0  0  0  0  0  0  0  0  0  0  0  0
    5.7042   -4.4792    0.0000 C   0  0  0  0  0  0  0  0  0  0  0  0
    8.6375   -4.7417    0.0000 Cl  0  0  0  0  0  0  0  0  0  0  0  0
    8.7458   -2.2583    0.0000 C   0  0  0  0  0  0  0  0  0  0  0  0
    9.1583   -2.9708    0.0000 C   0  0  0  0  0  0  0  0  0  0  0  0
    4.9917   -3.2417    0.0000 C   0  0  0  0  0  0  0  0  0  0  0  0
    4.9917   -4.8958    0.0000 C   0  0  0  0  0  0  0  0  0  0  0  0
    4.2792   -3.6542    0.0000 C   0  0  0  0  0  0  0  0  0  0  0  0
    4.2792   -4.4833    0.0000 C   0  0  0  0  0  0  0  0  0  0  0  0
  2  1  1  0
  3  1  1  0
  4  3  2  0
  5  8  1  0
  6  2  1  0
  7  3  1  0
  8  1  1  0
  9  6  2  0
 11  4  1  0
 12  7  1  0
 13  6  1  0
 14  9  1  0
 15 13  2  0
 16 14  2  0
 11 12  1  0
  5  9  1  0
 16 15  1  0
M  END
>  <ID>  (1338) 


>  <MOLENAME>  (1338) 
IDAZOXAN HYDROCHLORIDE

>  <therap>  (1338) 
alpha2-adrenergic blocker

>  <ref>  (1338) 
Ann NY Acad Sci 881:272 (1999); CNS Drug Reviews 8(:177 (2002)

>  <cas#>  (1338) 
79944-58-4

>  <source>  (1338) 
synthetic

>  <status>  (1338) 
INN, BAN

>  <tradename>  (1338) 
nan

>  <SMILES>  (1338) 
c1cc2c(cc1)OC(C1=NCCN1)CO2

>  <standardized_failed>  (1338) 
False

$$$$

     RDKit          2D

 14 14  0  0  0  0  0  0  0  0999 V2000
    3.4167   -0.8750    0.0000 C   0  0  0  0  0  0  0  0  0  0  0  0
    3.4167   -1.7042    0.0000 C   0  0  0  0  0  0  0  0  0  0  0  0
    4.1292   -0.4542    0.0000 C   0  0  0  0  0  0  0  0  0  0  0  0
    4.1375   -2.1167    0.0000 O   0  0  0  0  0  0  0  0  0  0  0  0
    4.1375   -2.9417    0.0000 C   0  0  0  0  0  0  0  0  0  0  0  0
    2.7042   -2.1167    0.0000 C   0  0  0  0  0  0  0  0  0  0  0  0
    4.1292    0.3708    0.0000 O   0  0  0  0  0  0  0  0  0  0  0  0
    3.4250   -3.3542    0.0000 O   0  0  0  0  0  0  0  0  0  0  0  0
    4.8500   -0.8667    0.0000 O   0  0  0  0  0  0  0  0  0  0  0  0
    2.7042   -0.4625    0.0000 C   0  0  0  0  0  0  0  0  0  0  0  0
    1.9917   -0.8750    0.0000 C   0  0  0  0  0  0  0  0  0  0  0  0
    4.8542   -3.3500    0.0000 C   0  0  0  0  0  0  0  0  0  0  0  0
    1.9917   -1.7042    0.0000 C   0  0  0  0  0  0  0  0  0  0  0  0
    2.7042   -2.9417    0.0000 C   0  0  0  0  0  0  0  0  0  0  0  0
  2  1  2  0
  3  1  1  0
  4  2  1  0
  5  4  1  0
  6  2  1  0
  7  3  2  0
  8  5  2  0
  9  3  1  0
 10  1  1  0
 11 10  2  0
 12  5  1  0
 13 11  1  0
 14  6  1  0
  6 13  2  0
M  END
>  <ID>  (1339) 


>  <MOLENAME>  (1339) 
CRESOPIRINE

>  <therap>  (1339) 
antiinflammatory, antpyretic

>  <ref>  (1339) 
nan

>  <cas#>  (1339) 
4386-39-4

>  <source>  (1339) 
synthetic

>  <status>  (1339) 
INN

>  <tradename>  (1339) 
nan

>  <SMILES>  (1339) 
CC(=O)Oc1c(C(=O)O)cccc1C

>  <standardized_failed>  (1339) 
False

$$$$

     RDKit          2D

 25 27  0  0  0  0  0  0  0  0999 V2000
    3.7542   -2.8500    0.0000 N   0  0  0  0  0  0  0  0  0  0  0  0
    3.7417   -2.0167    0.0000 C   0  0  0  0  0  0  0  0  0  0  0  0
    3.0417   -3.2667    0.0000 C   0  0  0  0  0  0  0  0  0  0  0  0
    2.3167   -2.8542    0.0000 C   0  0  0  0  0  0  0  0  0  0  0  0
    3.0292   -1.6125    0.0000 C   0  0  0  0  0  0  0  0  0  0  0  0
    2.3167   -2.0292    0.0000 C   0  0  0  0  0  0  0  0  0  0  0  0
    4.4542   -1.6042    0.0000 C   0  0  0  0  0  0  0  0  0  0  0  0
    1.6042   -1.6167    0.0000 C   0  0  0  0  0  0  0  0  0  0  0  0
    3.0250   -0.8000    0.0000 C   0  0  0  0  0  0  0  0  0  0  0  0
    1.6042   -3.2667    0.0000 C   0  0  0  0  0  0  0  0  0  0  0  0
    3.0417   -4.0917    0.0000 C   0  0  0  0  0  0  0  0  0  0  0  0
    4.4667   -3.2542    0.0000 C   0  0  0  0  0  0  0  0  0  0  0  0
    6.1417   -2.8417    0.0000 Br  0  0  0  0  0  0  0  0  0  0  0  0
    4.4417   -0.7875    0.0000 C   0  0  0  0  0  0  0  0  0  0  0  0
    0.8917   -2.8542    0.0000 C   0  0  0  0  0  0  0  0  0  0  0  0
    3.7292   -0.3792    0.0000 C   0  0  0  0  0  0  0  0  0  0  0  0
    0.8917   -2.0292    0.0000 C   0  0  0  0  0  0  0  0  0  0  0  0
    5.1542   -0.3667    0.0000 N   0  0  0  0  0  0  0  0  0  0  0  0
    0.1792   -3.2667    0.0000 N   0  0  0  0  0  0  0  0  0  0  0  0
    2.3167   -4.5000    0.0000 C   0  0  0  0  0  0  0  0  0  0  0  0
    3.7542   -4.4917    0.0000 C   0  0  0  0  0  0  0  0  0  0  0  0
    5.1792   -2.8417    0.0000 C   0  0  0  0  0  0  0  0  0  0  0  0
    3.7542   -5.3167    0.0000 C   0  0  0  0  0  0  0  0  0  0  0  0
    2.3167   -5.3250    0.0000 C   0  0  0  0  0  0  0  0  0  0  0  0
    3.0417   -5.7375    0.0000 C   0  0  0  0  0  0  0  0  0  0  0  0
  2  1  2  0
  3  1  1  0
  4  3  2  0
  5  2  1  0
  6  4  1  0
  7  2  1  0
  8  6  1  0
  9  5  1  0
 10  4  1  0
 11  3  1  0
 12  1  1  0
 14  7  2  0
 15 10  2  0
 16 14  1  0
 17 15  1  0
 18 14  1  0
 19 15  1  0
 20 11  2  0
 21 11  1  0
 22 12  1  0
 23 21  2  0
 24 20  1  0
 25 24  2  0
  5  6  2  0
 16  9  2  0
 23 25  1  0
 17  8  2  0
M  CHG  2   1   1  13  -1
M  END
>  <ID>  (1340) 


>  <MOLENAME>  (1340) 
HOMIDIUM BROMIDE

>  <therap>  (1340) 
antiprotozoal, intercalcates with DNA

>  <ref>  (1340) 
J Mol Biol 13: 269 (1965); 27: 87 (1967)

>  <cas#>  (1340) 
1239-45-8

>  <source>  (1340) 
synthetic

>  <status>  (1340) 
INN, BAN

>  <tradename>  (1340) 
nan

>  <SMILES>  (1340) 
CC[n+]1c2cc(N)ccc2c2ccc(N)cc2c1-c1ccccc1

>  <standardized_failed>  (1340) 
False

$$$$

     RDKit          2D

 18 18  0  0  0  0  0  0  0  0999 V2000
    5.8250   -5.1167    0.0000 C   0  0  0  0  0  0  0  0  0  0  0  0
    5.1042   -4.7042    0.0000 C   0  0  0  0  0  0  0  0  0  0  0  0
    4.3917   -5.1167    0.0000 C   0  0  0  0  0  0  0  0  0  0  0  0
    5.8250   -5.9417    0.0000 C   0  0  0  0  0  0  0  0  0  0  0  0
    7.2625   -3.4667    0.0000 N   0  0  0  0  0  0  0  0  0  0  0  0
    6.5417   -3.8792    0.0000 C   0  0  0  0  0  0  0  0  0  0  0  0
    6.5417   -4.7042    0.0000 C   0  0  0  0  0  0  0  0  0  0  0  0
    4.3917   -5.9417    0.0000 C   0  0  0  0  0  0  0  0  0  0  0  0
    5.1042   -6.3542    0.0000 C   0  0  0  0  0  0  0  0  0  0  0  0
    6.5792   -6.9917    0.0000 Cl  0  0  0  0  0  0  0  0  0  0  0  0
    7.2542   -5.1250    0.0000 O   0  0  0  0  0  0  0  0  0  0  0  0
    8.2417   -3.4750    0.0000 C   0  0  0  0  0  0  0  0  0  0  0  0
    3.6792   -4.7042    0.0000 C   0  0  0  0  0  0  0  0  0  0  0  0
    3.6792   -6.3542    0.0000 C   0  0  0  0  0  0  0  0  0  0  0  0
    8.7292   -4.1792    0.0000 C   0  0  0  0  0  0  0  0  0  0  0  0
    8.7292   -2.8042    0.0000 C   0  0  0  0  0  0  0  0  0  0  0  0
    2.9667   -5.1167    0.0000 C   0  0  0  0  0  0  0  0  0  0  0  0
    2.9667   -5.9417    0.0000 C   0  0  0  0  0  0  0  0  0  0  0  0
  2  1  2  0
  3  2  1  0
  4  1  1  0
  5  6  1  0
  6  7  1  0
  7  1  1  0
  8  9  1  0
  9  4  2  0
 11  7  1  0
 12  5  1  0
 13  3  2  0
 14  8  2  0
 15 12  1  0
 16 12  1  0
 17 13  1  0
 18 14  1  0
  8  3  1  0
 18 17  2  0
M  END
>  <ID>  (1341) 


>  <MOLENAME>  (1341) 
PRONETALOL HYDROCHLORIDE

>  <therap>  (1341) 
beta adrenergic agonist, antiarrhythmic

>  <ref>  (1341) 
Nature 207:594 (1965); Commun Chem Pathol Pharmacol 9:601 (1974)

>  <cas#>  (1341) 
54-80-8

>  <source>  (1341) 
synthetic; ICI-38174, AY-6204

>  <status>  (1341) 
INN, BAN

>  <tradename>  (1341) 
ALDERLIN

>  <SMILES>  (1341) 
CC(C)NCC(O)c1cc2ccccc2cc1

>  <standardized_failed>  (1341) 
False

$$$$

     RDKit          2D

 30 33  0  0  0  0  0  0  0  0999 V2000
    7.0000   -0.6500    0.0000 C   0  0  0  0  0  0  0  0  0  0  0  0
    5.5542   -1.4625    0.0000 C   0  0  0  0  0  0  0  0  0  0  0  0
    4.8417   -1.8750    0.0000 C   0  0  0  0  0  0  0  0  0  0  0  0
    6.2667   -1.8792    0.0000 C   0  0  0  0  0  0  0  0  0  0  0  0
    7.7875   -0.4042    0.0000 C   0  0  0  0  0  0  0  0  0  0  0  0
    6.9792   -1.4792    0.0000 C   0  0  0  0  0  0  0  0  0  0  0  0
    4.8375   -2.7000    0.0000 C   0  0  0  0  0  0  0  0  0  0  0  0
    5.5625   -0.6292    0.0000 C   0  0  0  0  0  0  0  0  0  0  0  0
    6.2875   -0.2292    0.0000 C   0  0  0  0  0  0  0  0  0  0  0  0
    4.1292   -1.4542    0.0000 C   0  0  0  0  0  0  0  0  0  0  0  0
    8.0000    0.3958    0.0000 C   0  0  0  0  0  0  0  0  0  0  0  0
    4.1292   -3.1042    0.0000 C   0  0  0  0  0  0  0  0  0  0  0  0
    8.2625   -1.0792    0.0000 C   0  0  0  0  0  0  0  0  0  0  0  0
    7.7667   -1.7417    0.0000 C   0  0  0  0  0  0  0  0  0  0  0  0
    6.2667   -2.7042    0.0000 C   0  0  0  0  0  0  0  0  0  0  0  0
    3.4167   -1.8750    0.0000 C   0  0  0  0  0  0  0  0  0  0  0  0
    3.4167   -2.7000    0.0000 C   0  0  0  0  0  0  0  0  0  0  0  0
    5.5500   -3.1125    0.0000 C   0  0  0  0  0  0  0  0  0  0  0  0
   10.1750    0.2583    0.0000 C   0  0  0  0  0  0  0  0  0  0  0  0
    5.5500   -2.2875    0.0000 Cl  0  0  0  0  0  0  0  0  0  0  0  0
    8.7917    0.6125    0.0000 C   0  0  0  0  0  0  0  0  0  0  0  0
    7.4125    0.9750    0.0000 O   0  0  0  0  0  0  0  0  0  0  0  0
    9.3792    0.0333    0.0000 O   0  0  0  0  0  0  0  0  0  0  0  0
   10.3792    1.0500    0.0000 O   0  0  0  0  0  0  0  0  0  0  0  0
    2.7042   -3.1125    0.0000 O   0  0  0  0  0  0  0  0  0  0  0  0
    8.6000   -0.4042    0.0000 O   0  0  0  0  0  0  0  0  0  0  0  0
    4.8417   -0.2167    0.0000 Cl  0  0  0  0  0  0  0  0  0  0  0  0
    6.9917    0.1750    0.0000 C   0  0  0  0  0  0  0  0  0  0  0  0
    4.8375   -1.0500    0.0000 C   0  0  0  0  0  0  0  0  0  0  0  0
   10.7625   -0.3250    0.0000 C   0  0  0  0  0  0  0  0  0  0  0  0
  2  8  1  0
  3  2  1  0
  4  6  1  0
  5  1  1  0
  6  1  1  0
  7  3  1  0
  8  9  1  0
  9  1  1  0
 10  3  1  0
  5 11  1  0
 12  7  2  0
 13  5  1  0
 14  6  1  0
 15  4  1  0
 16 10  2  0
 17 16  1  0
 18 15  1  0
 19 23  1  0
  2 20  1  6
 21 11  1  0
 22 11  2  0
 23 21  1  0
 24 19  2  0
 25 17  2  0
  5 26  1  6
  8 27  1  1
  1 28  1  1
  3 29  1  1
 30 19  1  0
 14 13  1  0
  4  2  1  0
  7 18  1  0
 12 17  1  0
M  END
>  <ID>  (1342) 


>  <MOLENAME>  (1342) 
DICHLORISONE ACETATE

>  <therap>  (1342) 
antipruretic

>  <ref>  (1342) 
JACS 81:2191 (1959)

>  <cas#>  (1342) 
79-61-8

>  <source>  (1342) 
semisynthetic; R-25788

>  <status>  (1342) 
INN

>  <tradename>  (1342) 
DILODERM

>  <SMILES>  (1342) 
CC(=O)OCC(=O)[C@@]1(O)CCC2C3CCC4=CC(=O)C=C[C@]4(C)[C@@]3(Cl)[C@@H](Cl)C[C@@]21C

>  <standardized_failed>  (1342) 
False

$$$$

     RDKit          2D

 18 17  0  0  0  0  0  0  0  0999 V2000
    6.5292    0.0833    0.0000 C   0  0  0  0  0  0  0  0  0  0  0  0
    0.8292    0.0708    0.0000 C   0  0  0  0  0  0  0  0  0  0  0  0
    7.2417    0.5000    0.0000 C   0  0  0  0  0  0  0  0  0  0  0  0
    0.1167   -0.3417    0.0000 C   0  0  0  0  0  0  0  0  0  0  0  0
    1.5458   -0.3417    0.0000 C   0  0  0  0  0  0  0  0  0  0  0  0
    1.5458   -1.1708    0.0000 C   0  0  0  0  0  0  0  0  0  0  0  0
    0.1167   -1.1708    0.0000 C   0  0  0  0  0  0  0  0  0  0  0  0
    0.8250    0.8958    0.0000 Cl  0  0  0  0  0  0  0  0  0  0  0  0
    5.1042    0.0833    0.0000 N   0  0  0  0  0  0  0  0  0  0  0  0
    0.8292   -1.5833    0.0000 C   0  0  0  0  0  0  0  0  0  0  0  0
   -0.6000   -1.5833    0.0000 Cl  0  0  0  0  0  0  0  0  0  0  0  0
    5.8167   -0.3292    0.0000 C   0  0  0  0  0  0  0  0  0  0  0  0
    5.4250   -1.3042    0.0000 Cl  0  0  0  0  0  0  0  0  0  0  0  0
    2.2542    0.0708    0.0000 O   0  0  0  0  0  0  0  0  0  0  0  0
    3.6792    0.0750    0.0000 C   0  0  0  0  0  0  0  0  0  0  0  0
    4.3917   -0.3292    0.0000 C   0  0  0  0  0  0  0  0  0  0  0  0
    2.9667   -0.3375    0.0000 C   0  0  0  0  0  0  0  0  0  0  0  0
    5.1042    0.9083    0.0000 C   0  0  0  0  0  0  0  0  0  0  0  0
  2  5  2  0
  3  1  3  0
  4  2  1  0
  5 14  1  0
  6  5  1  0
  7  4  2  0
  8  2  1  0
  9 12  1  0
 10  6  2  0
 11  7  1  0
 12  1  1  0
 14 17  1  0
 15 16  1  0
 16  9  1  0
 17 15  1  0
 18  9  1  0
 10  7  1  0
M  END
>  <ID>  (1343) 


>  <MOLENAME>  (1343) 
CLORGILINE HYDROCHLORIDE

>  <therap>  (1343) 
MAO-A inhibitor, antidepressant, antiparkinsonian

>  <ref>  (1343) 
J Neural Transm Suppl. 52:39 (1998)

>  <cas#>  (1343) 
17780-75-5

>  <source>  (1343) 
synthetic; M&B-9302

>  <status>  (1343) 
INN, BAN

>  <tradename>  (1343) 
nan

>  <SMILES>  (1343) 
C#CCN(C)CCCOc1c(Cl)cc(Cl)cc1

>  <standardized_failed>  (1343) 
False

$$$$

     RDKit          2D

 21 21  0  0  0  0  0  0  0  0999 V2000
    6.7542   -1.5917    0.0000 C   0  0  0  0  0  0  0  0  0  0  0  0
    7.4667   -2.0125    0.0000 C   0  0  0  0  0  0  0  0  0  0  0  0
    6.7542   -0.7667    0.0000 C   0  0  0  0  0  0  0  0  0  0  0  0
    3.8792   -3.0125    0.0000 C   0  0  0  0  0  0  0  0  0  0  0  0
    6.0542   -2.0125    0.0000 C   0  0  0  0  0  0  0  0  0  0  0  0
    7.4667   -2.8375    0.0000 C   0  0  0  0  0  0  0  0  0  0  0  0
    7.4792   -0.3542    0.0000 O   0  0  0  0  0  0  0  0  0  0  0  0
    3.1667   -3.4250    0.0000 O   0  0  0  0  0  0  0  0  0  0  0  0
    3.8792   -0.5375    0.0000 N   0  0  0  0  0  0  0  0  0  0  0  0
    3.8792   -2.1875    0.0000 C   0  0  0  0  0  0  0  0  0  0  0  0
    4.5917   -3.4250    0.0000 N   0  0  0  0  0  0  0  0  0  0  0  0
    6.7542   -3.2417    0.0000 C   0  0  0  0  0  0  0  0  0  0  0  0
    8.1917   -1.6000    0.0000 O   0  0  0  0  0  0  0  0  0  0  0  0
    6.0542   -2.8375    0.0000 C   0  0  0  0  0  0  0  0  0  0  0  0
    6.0417   -0.3542    0.0000 O   0  0  0  0  0  0  0  0  0  0  0  0
    4.5917   -4.2500    0.0000 N   0  0  0  0  0  0  0  0  0  0  0  0
    6.7542   -4.0667    0.0000 N   0  0  0  0  0  0  0  0  0  0  0  0
    4.5917   -0.9500    0.0000 C   0  0  0  0  0  0  0  0  0  0  0  0
    3.1667   -0.9500    0.0000 C   0  0  0  0  0  0  0  0  0  0  0  0
    3.1667   -1.7750    0.0000 C   0  0  0  0  0  0  0  0  0  0  0  0
    4.5917   -1.7750    0.0000 C   0  0  0  0  0  0  0  0  0  0  0  0
  2  1  2  0
  3  1  1  0
  5  1  1  0
  6  2  1  0
  7  3  2  0
  8  4  2  0
  9 18  2  0
 10  4  1  0
 11  4  1  0
 12  6  2  0
 13  2  1  0
 14  5  2  0
 15  3  1  0
 16 11  1  0
 17 12  1  0
 18 21  1  0
 19 20  2  0
 20 10  1  0
 21 10  2  0
 14 12  1  0
 19  9  1  0
M  END
>  <ID>  (1344) 


>  <MOLENAME>  (1344) 
PASINIAZID

>  <therap>  (1344) 
antibacterial (tuberculostatic)

>  <ref>  (1344) 
Chem Heterocyclic Compounds 31:639 (1995); Chinese J Clinicians 4:920 (2010)

>  <cas#>  (1344) 
2066-89-9

>  <source>  (1344) 
synthetic; RD-325

>  <status>  (1344) 
INN

>  <tradename>  (1344) 
nan

>  <SMILES>  (1344) 
NNC(=O)c1ccncc1.Nc1cc(O)c(C(=O)O)cc1

>  <standardized_failed>  (1344) 
False

$$$$

     RDKit          2D

 17 18  0  0  0  0  0  0  0  0999 V2000
    3.3792   -0.5542    0.0000 C   0  0  0  0  0  0  0  0  0  0  0  0
    3.6375    0.2333    0.0000 C   0  0  0  0  0  0  0  0  0  0  0  0
    4.0417   -1.0417    0.0000 O   0  0  0  0  0  0  0  0  0  0  0  0
    2.9667    0.7125    0.0000 O   0  0  0  0  0  0  0  0  0  0  0  0
    4.4625    0.2250    0.0000 O   0  0  0  0  0  0  0  0  0  0  0  0
    4.7167   -0.5542    0.0000 C   0  0  0  0  0  0  0  0  0  0  0  0
    2.3042    0.2333    0.0000 C   0  0  0  0  0  0  0  0  0  0  0  0
    2.5542   -0.5542    0.0000 C   0  0  0  0  0  0  0  0  0  0  0  0
    5.5000   -0.8167    0.0000 C   0  0  0  0  0  0  0  0  0  0  0  0
    1.5167    0.4833    0.0000 C   0  0  0  0  0  0  0  0  0  0  0  0
    5.6667   -1.6250    0.0000 Cl  0  0  0  0  0  0  0  0  0  0  0  0
    6.1167   -0.2667    0.0000 Cl  0  0  0  0  0  0  0  0  0  0  0  0
    6.2917   -1.0292    0.0000 Cl  0  0  0  0  0  0  0  0  0  0  0  0
    2.0667   -1.2250    0.0000 O   0  0  0  0  0  0  0  0  0  0  0  0
    1.3417    1.2875    0.0000 O   0  0  0  0  0  0  0  0  0  0  0  0
    0.1167    0.1833    0.0000 O   0  0  0  0  0  0  0  0  0  0  0  0
    0.9042   -0.0667    0.0000 C   0  0  0  0  0  0  0  0  0  0  0  0
  2  1  1  0
  1  3  1  6
  2  4  1  6
  2  5  1  0
  6  3  1  0
  7  8  1  0
  8  1  1  0
  6  9  1  6
  7 10  1  1
 11  9  1  0
 12  9  1  0
 13  9  1  0
  8 14  1  1
 15 10  1  0
 16 17  1  0
 17 10  1  0
  4  7  1  0
  6  5  1  0
M  END
>  <ID>  (1345) 


>  <MOLENAME>  (1345) 
CHLORALOSE

>  <therap>  (1345) 
anesthetic

>  <ref>  (1345) 
Psychopharmacologia 6:1 (1964); Toxicol Appl Pharmacol 21:315 (1972); Nature 252:52 (1974)

>  <cas#>  (1345) 
15879-93-3

>  <source>  (1345) 
synthetic

>  <status>  (1345) 
INN, DCF

>  <tradename>  (1345) 
ALFAKIL

>  <SMILES>  (1345) 
OCC(O)[C@H]1O[C@@H]2O[C@H](C(Cl)(Cl)Cl)O[C@@H]2[C@H]1O

>  <standardized_failed>  (1345) 
False

$$$$

     RDKit          2D

 11 11  0  0  0  0  0  0  0  0999 V2000
    6.8250   -1.6375    0.0000 C   0  0  0  0  0  0  0  0  0  0  0  0
    6.1125   -2.0500    0.0000 O   0  0  0  0  0  0  0  0  0  0  0  0
    6.8208   -0.8125    0.0000 O   0  0  0  0  0  0  0  0  0  0  0  0
    5.3958   -1.6375    0.0000 C   0  0  0  0  0  0  0  0  0  0  0  0
    5.3958   -0.8083    0.0000 C   0  0  0  0  0  0  0  0  0  0  0  0
    4.6792   -0.3958    0.0000 C   0  0  0  0  0  0  0  0  0  0  0  0
    3.9667   -1.6375    0.0000 C   0  0  0  0  0  0  0  0  0  0  0  0
    7.5375   -2.0417    0.0000 C   0  0  0  0  0  0  0  0  0  0  0  0
    4.6792   -2.0500    0.0000 C   0  0  0  0  0  0  0  0  0  0  0  0
    3.9667   -0.8125    0.0000 C   0  0  0  0  0  0  0  0  0  0  0  0
    4.6750    0.4292    0.0000 C   0  0  0  0  0  0  0  0  0  0  0  0
  2  1  1  0
  3  1  2  0
  4  2  1  0
  5  4  2  0
  6  5  1  0
  7  9  2  0
  8  1  1  0
  9  4  1  0
 10  6  2  0
 11  6  1  0
  7 10  1  0
M  END
>  <ID>  (1346) 


>  <MOLENAME>  (1346) 
meta-CRESYL ACETATE

>  <therap>  (1346) 
antiseptic (topical)

>  <ref>  (1346) 
Oral Surg., Oral Med., Oral Pathol. (1968), 26(6), 848-55; Ann. Otol., Rhinol., Laryngol. (1955), 64, 1009-18. ; J. Pharmacol. (1911), 2, 513-30.

>  <cas#>  (1346) 
122-46-3

>  <source>  (1346) 
synthetic

>  <status>  (1346) 
INN

>  <tradename>  (1346) 
nan

>  <SMILES>  (1346) 
CC(=O)Oc1cc(C)ccc1

>  <standardized_failed>  (1346) 
False

$$$$

     RDKit          2D

 21 24  0  0  0  0  0  0  0  0999 V2000
    1.9417   -1.6542    0.0000 C   0  0  0  0  0  0  0  0  0  0  0  0
    1.9417   -2.4792    0.0000 C   0  0  0  0  0  0  0  0  0  0  0  0
    1.2250   -2.8917    0.0000 C   0  0  0  0  0  0  0  0  0  0  0  0
    0.5125   -2.4792    0.0000 C   0  0  0  0  0  0  0  0  0  0  0  0
   -0.2000   -2.9000    0.0000 C   0  0  0  0  0  0  0  0  0  0  0  0
    2.7250   -1.4042    0.0000 C   0  0  0  0  0  0  0  0  0  0  0  0
    2.7250   -2.7375    0.0000 C   0  0  0  0  0  0  0  0  0  0  0  0
   -0.1958   -3.7250    0.0000 C   0  0  0  0  0  0  0  0  0  0  0  0
    3.2042   -2.0667    0.0000 C   0  0  0  0  0  0  0  0  0  0  0  0
    1.2292   -1.2417    0.0000 C   0  0  0  0  0  0  0  0  0  0  0  0
    0.5042   -1.6542    0.0000 C   0  0  0  0  0  0  0  0  0  0  0  0
    1.2292   -3.7167    0.0000 C   0  0  0  0  0  0  0  0  0  0  0  0
   -0.9208   -2.4875    0.0000 C   0  0  0  0  0  0  0  0  0  0  0  0
    0.5167   -4.1333    0.0000 C   0  0  0  0  0  0  0  0  0  0  0  0
   -0.9208   -4.1417    0.0000 C   0  0  0  0  0  0  0  0  0  0  0  0
   -1.6333   -3.7292    0.0000 C   0  0  0  0  0  0  0  0  0  0  0  0
    2.9375   -0.6042    0.0000 O   0  0  0  0  0  0  0  0  0  0  0  0
   -1.6333   -2.9000    0.0000 C   0  0  0  0  0  0  0  0  0  0  0  0
    1.9375   -0.8292    0.0000 C   0  0  0  0  0  0  0  0  0  0  0  0
    4.0292   -2.0667    0.0000 O   0  0  0  0  0  0  0  0  0  0  0  0
   -2.3458   -4.1417    0.0000 O   0  0  0  0  0  0  0  0  0  0  0  0
  2  1  1  0
  3  2  1  0
  4 11  1  0
  5  4  1  0
  6  1  1  0
  7  2  1  0
  8  5  2  0
  9  6  1  0
 10  1  1  0
 11 10  1  0
 12  3  1  0
 13  5  1  0
 14 12  1  0
 15  8  1  0
 16 18  1  0
  6 17  1  1
 18 13  2  0
 19  1  1  0
  9 20  1  1
 21 16  1  0
  7  9  1  0
  3  4  1  0
  8 14  1  0
 16 15  2  0
M  END
>  <ID>  (1347) 


>  <MOLENAME>  (1347) 
EPIESTRIOL

>  <therap>  (1347) 
estrogen

>  <ref>  (1347) 
Endocrinology (1977), 100(2), 513-19; Steroids (1969), 13(2), 163-77; J. Pharm. Sci. (1994), 83(6), 874-7

>  <cas#>  (1347) 
547-81-9

>  <source>  (1347) 
semisynthetic

>  <status>  (1347) 
INN, BAN

>  <tradename>  (1347) 
nan

>  <SMILES>  (1347) 
CC12CCC3c4c(cc(O)cc4)CCC3C1C[C@H](O)[C@@H]2O

>  <standardized_failed>  (1347) 
False

$$$$

     RDKit          2D

 10 10  0  0  0  0  0  0  0  0999 V2000
    6.1917   -1.7292    0.0000 C   0  0  0  0  0  0  0  0  0  0  0  0
    6.1917   -0.9042    0.0000 C   0  0  0  0  0  0  0  0  0  0  0  0
    5.4792   -0.4875    0.0000 N   0  0  0  0  0  0  0  0  0  0  0  0
    4.7667   -1.7292    0.0000 C   0  0  0  0  0  0  0  0  0  0  0  0
    5.4792   -2.1375    0.0000 C   0  0  0  0  0  0  0  0  0  0  0  0
    4.7667   -0.9042    0.0000 C   0  0  0  0  0  0  0  0  0  0  0  0
    5.4792   -2.9625    0.0000 O   0  0  0  0  0  0  0  0  0  0  0  0
    6.9042   -2.1417    0.0000 O   0  0  0  0  0  0  0  0  0  0  0  0
    6.9042   -0.4917    0.0000 C   0  0  0  0  0  0  0  0  0  0  0  0
    5.4792    0.3375    0.0000 C   0  0  0  0  0  0  0  0  0  0  0  0
  2  1  2  0
  3  2  1  0
  4  5  1  0
  5  1  1  0
  6  4  2  0
  7  5  2  0
  8  1  1  0
  9  2  1  0
 10  3  1  0
  3  6  1  0
M  END
>  <ID>  (1348) 


>  <MOLENAME>  (1348) 
DEFERIPRONE

>  <therap>  (1348) 
iron chelating agent

>  <ref>  (1348) 
Drugs (1999), 58(3), 553-78; Blood (1992), 80(3), 569-74; Ann. N. Y. Acad. Sci. (1990), 612, 339-50

>  <cas#>  (1348) 
30652-11-0

>  <source>  (1348) 
synthetic; L-1

>  <status>  (1348) 
INN, BAN

>  <tradename>  (1348) 
nan

>  <SMILES>  (1348) 
Cc1c(O)c(=O)ccn1C

>  <standardized_failed>  (1348) 
False

$$$$

     RDKit          2D

 13 12  0  0  0  0  0  0  0  0999 V2000
    4.2417   -0.0000    0.0000 S   0  0  0  0  0  0  0  0  0  0  0  0
    5.0667   -0.0000    0.0000 N   0  0  0  0  0  0  0  0  0  0  0  0
    3.4167   -0.0000    0.0000 C   0  0  0  0  0  0  0  0  0  0  0  0
    4.2375   -0.8250    0.0000 O   0  0  0  0  0  0  0  0  0  0  0  0
    4.2375    0.8250    0.0000 O   0  0  0  0  0  0  0  0  0  0  0  0
    3.0042   -0.7125    0.0000 C   0  0  0  0  0  0  0  0  0  0  0  0
    3.0042    0.7125    0.0000 C   0  0  0  0  0  0  0  0  0  0  0  0
    5.4792   -0.7042    0.0000 Cl  0  0  0  0  0  0  0  0  0  0  0  0
    2.1792    0.7083    0.0000 C   0  0  0  0  0  0  0  0  0  0  0  0
    2.1792   -0.7125    0.0000 C   0  0  0  0  0  0  0  0  0  0  0  0
    1.7667   -0.0042    0.0000 C   0  0  0  0  0  0  0  0  0  0  0  0
    5.9542    0.5083    0.0000 Na  0  0  0  0  0 15  0  0  0  0  0  0
    0.9417   -0.0042    0.0000 C   0  0  0  0  0  0  0  0  0  0  0  0
  2  1  1  0
  3  1  1  0
  4  1  2  0
  5  1  2  0
  6  3  2  0
  7  3  1  0
  8  2  1  0
  9  7  2  0
 10  6  1  0
 11  9  1  0
 13 11  1  0
 11 10  2  0
M  CHG  2   2  -1  12   1
M  END
>  <ID>  (1349) 


>  <MOLENAME>  (1349) 
CHLORAMINE-T

>  <therap>  (1349) 
antiseptic, disinfestant, antiproliferative

>  <ref>  (1349) 
J Chem Soc 87:145 (1905); J Soc Chem Ind 37:288 (1918)

>  <cas#>  (1349) 
127-65-1

>  <source>  (1349) 
synthetic

>  <status>  (1349) 
INN, BAN

>  <tradename>  (1349) 
CHLORAZINE

>  <SMILES>  (1349) 
Cc1ccc(S(=O)(=O)NCl)cc1

>  <standardized_failed>  (1349) 
False

$$$$

     RDKit          2D

 19 21  0  0  0  0  0  0  0  0999 V2000
    3.5417   -2.2292    0.0000 C   0  0  0  0  0  0  0  0  0  0  0  0
    3.5375   -0.5792    0.0000 N   0  0  0  0  0  0  0  0  0  0  0  0
    4.2542   -0.9875    0.0000 C   0  0  0  0  0  0  0  0  0  0  0  0
    4.2542   -1.8167    0.0000 C   0  0  0  0  0  0  0  0  0  0  0  0
    2.8292   -1.8167    0.0000 C   0  0  0  0  0  0  0  0  0  0  0  0
    3.5417   -3.0542    0.0000 C   0  0  0  0  0  0  0  0  0  0  0  0
    2.8292   -0.9917    0.0000 C   0  0  0  0  0  0  0  0  0  0  0  0
    2.8292   -3.4667    0.0000 O   0  0  0  0  0  0  0  0  0  0  0  0
    4.9625   -0.5667    0.0000 C   0  0  0  0  0  0  0  0  0  0  0  0
    4.2625   -3.4667    0.0000 O   0  0  0  0  0  0  0  0  0  0  0  0
    2.1125   -2.2375    0.0000 C   0  0  0  0  0  0  0  0  0  0  0  0
    2.1125   -0.5792    0.0000 C   0  0  0  0  0  0  0  0  0  0  0  0
    4.9542    0.2500    0.0000 C   0  0  0  0  0  0  0  0  0  0  0  0
    5.6792   -0.9792    0.0000 C   0  0  0  0  0  0  0  0  0  0  0  0
    1.4000   -1.8250    0.0000 C   0  0  0  0  0  0  0  0  0  0  0  0
    1.4000   -1.0000    0.0000 C   0  0  0  0  0  0  0  0  0  0  0  0
    6.3917   -0.5667    0.0000 C   0  0  0  0  0  0  0  0  0  0  0  0
    5.6667    0.6708    0.0000 C   0  0  0  0  0  0  0  0  0  0  0  0
    6.3875    0.2583    0.0000 C   0  0  0  0  0  0  0  0  0  0  0  0
  2  7  1  0
  3  4  1  0
  4  1  2  0
  5  1  1  0
  6  1  1  0
  7  5  2  0
  8  6  2  0
  9  3  1  0
 10  6  1  0
 11  5  1  0
 12  7  1  0
 13  9  2  0
 14  9  1  0
 15 11  2  0
 16 15  1  0
 17 14  2  0
 18 13  1  0
 19 17  1  0
  3  2  2  0
 12 16  2  0
 18 19  2  0
M  END
>  <ID>  (1350) 


>  <MOLENAME>  (1350) 
CINCHOPHEN

>  <therap>  (1350) 
analgesic, antipyretic, antiinflammatory

>  <ref>  (1350) 
Cal West Med 37:405 (1932)

>  <cas#>  (1350) 
132-60-5

>  <source>  (1350) 
synthetic; hepatotoxic

>  <status>  (1350) 
NF-X. INN, BAN

>  <tradename>  (1350) 
ATOPHAN

>  <SMILES>  (1350) 
O=C(O)c1cc(-c2ccccc2)nc2c1cccc2

>  <standardized_failed>  (1350) 
False

$$$$

     RDKit          2D

 12 13  0  0  0  0  0  0  0  0999 V2000
    4.3292   -1.2042    0.0000 N   0  0  0  0  0  0  0  0  0  0  0  0
    3.6042   -1.6167    0.0000 C   0  0  0  0  0  0  0  0  0  0  0  0
    4.3292   -0.3667    0.0000 C   0  0  0  0  0  0  0  0  0  0  0  0
    2.8875   -1.2042    0.0000 C   0  0  0  0  0  0  0  0  0  0  0  0
    3.6042    0.0500    0.0000 O   0  0  0  0  0  0  0  0  0  0  0  0
    2.8917   -0.3667    0.0000 C   0  0  0  0  0  0  0  0  0  0  0  0
    3.6042   -2.4417    0.0000 O   0  0  0  0  0  0  0  0  0  0  0  0
    5.0417    0.0375    0.0000 O   0  0  0  0  0  0  0  0  0  0  0  0
    2.1750   -1.6125    0.0000 C   0  0  0  0  0  0  0  0  0  0  0  0
    2.1750    0.0458    0.0000 C   0  0  0  0  0  0  0  0  0  0  0  0
    1.4625   -1.2000    0.0000 C   0  0  0  0  0  0  0  0  0  0  0  0
    1.4625   -0.3750    0.0000 C   0  0  0  0  0  0  0  0  0  0  0  0
  2  1  1  0
  3  1  1  0
  4  2  1  0
  5  3  1  0
  6  5  1  0
  7  2  2  0
  8  3  2  0
  9  4  2  0
 10  6  2  0
 11  9  1  0
 12 10  1  0
  6  4  1  0
 12 11  2  0
M  END
>  <ID>  (1351) 


>  <MOLENAME>  (1351) 
CARSALAM

>  <therap>  (1351) 
analgesic

>  <ref>  (1351) 
J Pharmac Pharmacol 15 Suppl 1:97T (1963); J Biol Chem  267:1569 (1992)

>  <cas#>  (1351) 
2037-95-8

>  <source>  (1351) 
synthetic

>  <status>  (1351) 
INN, BAN

>  <tradename>  (1351) 
nan

>  <SMILES>  (1351) 
O=c1[nH]c(=O)c2ccccc2o1

>  <standardized_failed>  (1351) 
False

$$$$

     RDKit          2D

 11 12  0  0  0  0  0  0  0  0999 V2000
    2.7667   -0.2167    0.0000 C   0  0  0  0  0  0  0  0  0  0  0  0
    3.4750    0.2000    0.0000 C   0  0  0  0  0  0  0  0  0  0  0  0
    2.7667   -1.0417    0.0000 C   0  0  0  0  0  0  0  0  0  0  0  0
    3.4792   -1.4542    0.0000 C   0  0  0  0  0  0  0  0  0  0  0  0
    4.1917   -0.2042    0.0000 C   0  0  0  0  0  0  0  0  0  0  0  0
    4.1917   -1.0375    0.0000 C   0  0  0  0  0  0  0  0  0  0  0  0
    4.9042    0.2083    0.0000 O   0  0  0  0  0  0  0  0  0  0  0  0
    2.0500    0.1958    0.0000 C   0  0  0  0  0  0  0  0  0  0  0  0
    2.0500   -1.4542    0.0000 C   0  0  0  0  0  0  0  0  0  0  0  0
    1.3375   -0.2167    0.0000 C   0  0  0  0  0  0  0  0  0  0  0  0
    1.3375   -1.0417    0.0000 C   0  0  0  0  0  0  0  0  0  0  0  0
  2  1  2  0
  3  1  1  0
  4  3  2  0
  5  2  1  0
  6  4  1  0
  7  5  1  0
  8  1  1  0
  9  3  1  0
 10  8  2  0
 11 10  1  0
 11  9  2  0
  5  6  2  0
M  END
>  <ID>  (1352) 


>  <MOLENAME>  (1352) 
beta-NAPHTHOL

>  <therap>  (1352) 
anthelmintic, antiseptic

>  <ref>  (1352) 
Austral J Chem 27:2385 (1974); Tetrahedron Letts 31:6977 (1990)

>  <cas#>  (1352) 
135-19-3

>  <source>  (1352) 
synthetic

>  <status>  (1352) 
INN, NF-XI

>  <tradename>  (1352) 
MICROCIDIN

>  <SMILES>  (1352) 
Oc1ccc2ccccc2c1

>  <standardized_failed>  (1352) 
False

$$$$

     RDKit          2D

 19 19  0  0  0  0  0  0  0  0999 V2000
    6.8417   -6.4167    0.0000 C   0  0  0  0  0  0  0  0  0  0  0  0
    7.5542   -6.8292    0.0000 C   0  0  0  0  0  0  0  0  0  0  0  0
    7.5542   -7.6542    0.0000 C   0  0  0  0  0  0  0  0  0  0  0  0
    6.8417   -8.0667    0.0000 C   0  0  0  0  0  0  0  0  0  0  0  0
    6.1292   -6.8292    0.0000 C   0  0  0  0  0  0  0  0  0  0  0  0
    6.1292   -7.6500    0.0000 C   0  0  0  0  0  0  0  0  0  0  0  0
    6.8417   -5.5917    0.0000 C   0  0  0  0  0  0  0  0  0  0  0  0
    6.1417   -5.1792    0.0000 N   0  0  0  0  0  0  0  0  0  0  0  0
    8.2667   -6.4167    0.0000 N   0  0  0  0  0  0  0  0  0  0  0  0
    8.2667   -8.0667    0.0000 Br  0  0  0  0  0  0  0  0  0  0  0  0
    5.4042   -8.0625    0.0000 Br  0  0  0  0  0  0  0  0  0  0  0  0
    6.1417   -4.3542    0.0000 C   0  0  0  0  0  0  0  0  0  0  0  0
    7.9500   -4.9000    0.0000 Cl  0  0  0  0  0  0  0  0  0  0  0  0
    4.1792   -3.7417    0.0000 C   0  0  0  0  0  0  0  0  0  0  0  0
    5.7417   -3.6292    0.0000 C   0  0  0  0  0  0  0  0  0  0  0  0
    5.5167   -4.1292    0.0000 C   0  0  0  0  0  0  0  0  0  0  0  0
    4.5917   -4.4625    0.0000 C   0  0  0  0  0  0  0  0  0  0  0  0
    4.8542   -3.9667    0.0000 C   0  0  0  0  0  0  0  0  0  0  0  0
    3.9667   -2.9417    0.0000 O   0  0  0  0  0  0  0  0  0  0  0  0
  2  1  2  0
  3  2  1  0
  4  6  1  0
  5  1  1  0
  6  5  2  0
  7  1  1  0
  8  7  1  0
  9  2  1  0
 10  3  1  0
 11  6  1  0
 12  8  1  0
 14 18  1  0
 15 12  1  0
 16 12  1  0
 17 16  1  0
 18 15  1  0
 19 14  1  0
  3  4  2  0
 17 14  1  0
M  END
>  <ID>  (1353) 


>  <MOLENAME>  (1353) 
AMBROXOL HYDROCHLORIDE

>  <therap>  (1353) 
expectorant

>  <ref>  (1353) 
Eur Journal Pharmacol 407:61 (2000)

>  <cas#>  (1353) 
23828-92-4, 18683-91-5 [ambroxol]

>  <source>  (1353) 
synthetic

>  <status>  (1353) 
INN, BAN, JAN

>  <tradename>  (1353) 
AMBROX

>  <SMILES>  (1353) 
Nc1c(CNC2CCC(O)CC2)cc(Br)cc1Br

>  <standardized_failed>  (1353) 
False

$$$$

     RDKit          2D

 28 30  0  0  0  0  0  0  0  0999 V2000
    5.6292   -5.7042    0.0000 N   0  0  0  0  0  0  0  0  0  0  0  0
    4.8042   -5.7000    0.0000 C   0  0  0  0  0  0  0  0  0  0  0  0
    7.2875   -5.7042    0.0000 N   0  0  0  0  0  0  0  0  0  0  0  0
    9.7792   -7.1375    0.0000 C   0  0  0  0  0  0  0  0  0  0  0  0
    9.3667   -7.8500    0.0000 C   0  0  0  0  0  0  0  0  0  0  0  0
   10.5792   -7.3125    0.0000 O   0  0  0  0  0  0  0  0  0  0  0  0
    9.9250   -8.4667    0.0000 O   0  0  0  0  0  0  0  0  0  0  0  0
   10.6667   -8.1292    0.0000 C   0  0  0  0  0  0  0  0  0  0  0  0
    9.3667   -6.4250    0.0000 C   0  0  0  0  0  0  0  0  0  0  0  0
    6.0417   -6.4250    0.0000 C   0  0  0  0  0  0  0  0  0  0  0  0
    6.0417   -4.9917    0.0000 C   0  0  0  0  0  0  0  0  0  0  0  0
    4.4000   -4.9792    0.0000 C   0  0  0  0  0  0  0  0  0  0  0  0
    4.3917   -6.4125    0.0000 O   0  0  0  0  0  0  0  0  0  0  0  0
    8.5375   -6.4250    0.0000 C   0  0  0  0  0  0  0  0  0  0  0  0
    8.1167   -5.7000    0.0000 C   0  0  0  0  0  0  0  0  0  0  0  0
    8.5375   -7.8500    0.0000 C   0  0  0  0  0  0  0  0  0  0  0  0
    3.5750   -4.9750    0.0000 O   0  0  0  0  0  0  0  0  0  0  0  0
    6.8750   -6.4250    0.0000 C   0  0  0  0  0  0  0  0  0  0  0  0
    6.8750   -4.9917    0.0000 C   0  0  0  0  0  0  0  0  0  0  0  0
    3.1625   -4.2542    0.0000 C   0  0  0  0  0  0  0  0  0  0  0  0
    8.1250   -7.1375    0.0000 C   0  0  0  0  0  0  0  0  0  0  0  0
    2.3375   -2.8375    0.0000 C   0  0  0  0  0  0  0  0  0  0  0  0
    1.9250   -2.1250    0.0000 Cl  0  0  0  0  0  0  0  0  0  0  0  0
    8.2292   -5.0875    0.0000 Cl  0  0  0  0  0  0  0  0  0  0  0  0
    2.3375   -4.2667    0.0000 C   0  0  0  0  0  0  0  0  0  0  0  0
    3.5667   -3.5500    0.0000 C   0  0  0  0  0  0  0  0  0  0  0  0
    1.9250   -3.5500    0.0000 C   0  0  0  0  0  0  0  0  0  0  0  0
    3.1625   -2.8375    0.0000 C   0  0  0  0  0  0  0  0  0  0  0  0
  2  1  1  0
  3 19  1  0
  4  9  2  0
  5 16  2  0
  6  4  1  0
  7  5  1  0
  8  6  1  0
  9 14  1  0
 10  1  1  0
 11  1  1  0
 12  2  1  0
 13  2  2  0
 14 15  1  0
 15  3  1  0
 16 21  1  0
 17 12  1  0
 18 10  1  0
 19 11  1  0
 20 17  1  0
 21 14  2  0
 22 27  2  0
 23 22  1  0
 25 20  2  0
 26 20  1  0
 27 25  1  0
 28 26  2  0
 18  3  1  0
 28 22  1  0
  4  5  1  0
  7  8  1  0
M  END
>  <ID>  (1354) 


>  <MOLENAME>  (1354) 
FIPEXIDE HYDROCHLORIDE

>  <therap>  (1354) 
psychostimulant

>  <ref>  (1354) 
hepatotoxic at clinical dose (600mg)

>  <cas#>  (1354) 
34161-24-5

>  <source>  (1354) 
synthetic

>  <status>  (1354) 
INN

>  <tradename>  (1354) 
nan

>  <SMILES>  (1354) 
O=C(COc1ccc(Cl)cc1)N1CCN(Cc2ccc3OCOc3c2)CC1

>  <standardized_failed>  (1354) 
False

$$$$

     RDKit          2D

 16 18  0  0  0  0  0  0  0  0999 V2000
    0.0000   -1.0542    0.0000 N   0  0  0  0  0  0  0  0  0  0  0  0
    0.0000   -1.8792    0.0000 C   0  0  0  0  0  0  0  0  0  0  0  0
   -0.7125   -0.6375    0.0000 Se  0  0  0  0  0  2  0  0  0  0  0  0
   -1.4208   -1.8792    0.0000 C   0  0  0  0  0  0  0  0  0  0  0  0
   -1.4250   -1.0542    0.0000 C   0  0  0  0  0  0  0  0  0  0  0  0
    0.7167   -0.6417    0.0000 C   0  0  0  0  0  0  0  0  0  0  0  0
    0.5875   -2.4625    0.0000 O   0  0  0  0  0  0  0  0  0  0  0  0
   -2.1375   -2.2917    0.0000 C   0  0  0  0  0  0  0  0  0  0  0  0
   -2.1375   -0.6417    0.0000 C   0  0  0  0  0  0  0  0  0  0  0  0
    0.7167    0.1833    0.0000 C   0  0  0  0  0  0  0  0  0  0  0  0
    1.4292   -1.0542    0.0000 C   0  0  0  0  0  0  0  0  0  0  0  0
   -2.8458   -1.8792    0.0000 C   0  0  0  0  0  0  0  0  0  0  0  0
   -2.8458   -1.0542    0.0000 C   0  0  0  0  0  0  0  0  0  0  0  0
    1.4292    0.5875    0.0000 C   0  0  0  0  0  0  0  0  0  0  0  0
    2.1417   -0.6500    0.0000 C   0  0  0  0  0  0  0  0  0  0  0  0
    2.1417    0.1750    0.0000 C   0  0  0  0  0  0  0  0  0  0  0  0
  2  1  1  0
  3  1  1  0
  4  2  1  0
  5  3  1  0
  6  1  1  0
  7  2  2  0
  8  4  2  0
  9  5  2  0
 10  6  2  0
 11  6  1  0
 12  8  1  0
 13  9  1  0
 14 10  1  0
 15 11  2  0
 16 15  1  0
  5  4  1  0
 14 16  2  0
 13 12  2  0
M  END
>  <ID>  (1355) 


>  <MOLENAME>  (1355) 
EBSELEN

>  <therap>  (1355) 
antioxidant, lipoxygenase inhibitor, inhibits oxidation of LDL

>  <ref>  (1355) 
Free Radical Biol. Med. (1993), 14(3), 313-23; Gen. Pharmacol. (1995), 26(6), 1153-69; Adv. Exp. Med. Biol. (1990), 264, 193-7

>  <cas#>  (1355) 
60940-34-3

>  <source>  (1355) 
synthetic

>  <status>  (1355) 
INN

>  <tradename>  (1355) 
nan

>  <SMILES>  (1355) 
O=c1c2ccccc2[se]n1-c1ccccc1

>  <standardized_failed>  (1355) 
False

$$$$

     RDKit          2D

 18 19  0  0  0  0  0  0  0  0999 V2000
    0.7292   -0.7167    0.0000 N   0  0  0  0  0  0  0  0  0  0  0  0
    0.0750   -0.3417    0.0000 C   0  0  0  0  0  0  0  0  0  0  0  0
    1.3792   -0.3417    0.0000 C   0  0  0  0  0  0  0  0  0  0  0  0
    0.0750    0.4083    0.0000 C   0  0  0  0  0  0  0  0  0  0  0  0
    1.3792    0.4083    0.0000 C   0  0  0  0  0  0  0  0  0  0  0  0
    2.0375   -0.7167    0.0000 C   0  0  0  0  0  0  0  0  0  0  0  0
   -0.5833   -0.7167    0.0000 C   0  0  0  0  0  0  0  0  0  0  0  0
    0.7292    0.7875    0.0000 C   0  0  0  0  0  0  0  0  0  0  0  0
    3.8292    0.4458    0.0000 Cl  0  0  0  0  0  0  0  0  0  0  0  0
   -0.5833    0.7875    0.0000 C   0  0  0  0  0  0  0  0  0  0  0  0
    2.0375    0.7875    0.0000 C   0  0  0  0  0  0  0  0  0  0  0  0
    0.7292   -1.4667    0.0000 C   0  0  0  0  0  0  0  0  0  0  0  0
   -1.2250   -0.3417    0.0000 C   0  0  0  0  0  0  0  0  0  0  0  0
    2.6875   -0.3417    0.0000 C   0  0  0  0  0  0  0  0  0  0  0  0
   -1.8750   -0.7167    0.0000 N   0  0  0  0  0  0  0  0  0  0  0  0
    3.3375   -0.7167    0.0000 N   0  0  0  0  0  0  0  0  0  0  0  0
   -1.2250    0.4083    0.0000 C   0  0  0  0  0  0  0  0  0  0  0  0
    2.6875    0.4083    0.0000 C   0  0  0  0  0  0  0  0  0  0  0  0
  2  1  2  0
  3  1  1  0
  4  2  1  0
  5  3  2  0
  6  3  1  0
  7  2  1  0
  8  5  1  0
 10  4  1  0
 11  5  1  0
 12  1  1  0
 13  7  2  0
 14  6  2  0
 15 13  1  0
 16 14  1  0
 17 13  1  0
 18 14  1  0
  4  8  2  0
 11 18  2  0
 17 10  2  0
M  CHG  2   1   1   9  -1
M  END
>  <ID>  (1356) 


>  <MOLENAME>  (1356) 
ACRIFLAVINIUM HYDROCHLORIDE

>  <therap>  (1356) 
antiinfective, intercalating agent

>  <ref>  (1356) 
Biochem J 35:1311 (1941); J Pharmacol Exp Ther 80:217 (1944)

>  <cas#>  (1356) 
8018-07-3

>  <source>  (1356) 
synthetic

>  <status>  (1356) 
NF, INN

>  <tradename>  (1356) 
PANFLAVIN

>  <SMILES>  (1356) 
C[n+]1c2cc(N)ccc2cc2c1cc(N)cc2

>  <standardized_failed>  (1356) 
False

$$$$

     RDKit          2D

 23 26  0  0  0  0  0  0  0  0999 V2000
    5.7875   -4.6792    0.0000 C   0  0  0  0  0  0  0  0  0  0  0  0
    3.6375   -5.9000    0.0000 C   0  0  0  0  0  0  0  0  0  0  0  0
    5.7792   -5.5042    0.0000 C   0  0  0  0  0  0  0  0  0  0  0  0
    4.3500   -5.4875    0.0000 C   0  0  0  0  0  0  0  0  0  0  0  0
    5.0583   -5.9083    0.0000 C   0  0  0  0  0  0  0  0  0  0  0  0
    6.5708   -4.4333    0.0000 C   0  0  0  0  0  0  0  0  0  0  0  0
    3.6333   -6.7250    0.0000 C   0  0  0  0  0  0  0  0  0  0  0  0
    5.0792   -4.2583    0.0000 C   0  0  0  0  0  0  0  0  0  0  0  0
    4.3542   -4.6625    0.0000 C   0  0  0  0  0  0  0  0  0  0  0  0
    6.5583   -5.7625    0.0000 C   0  0  0  0  0  0  0  0  0  0  0  0
    2.9250   -5.4792    0.0000 C   0  0  0  0  0  0  0  0  0  0  0  0
    7.0458   -5.1042    0.0000 C   0  0  0  0  0  0  0  0  0  0  0  0
    5.0625   -6.7292    0.0000 C   0  0  0  0  0  0  0  0  0  0  0  0
    6.7792   -3.6292    0.0000 C   0  0  0  0  0  0  0  0  0  0  0  0
    4.3458   -7.1375    0.0000 C   0  0  0  0  0  0  0  0  0  0  0  0
    2.9250   -7.1292    0.0000 C   0  0  0  0  0  0  0  0  0  0  0  0
    6.1958   -3.0500    0.0000 O   0  0  0  0  0  0  0  0  0  0  0  0
    5.7792   -3.8542    0.0000 C   0  0  0  0  0  0  0  0  0  0  0  0
    2.2167   -5.9000    0.0000 C   0  0  0  0  0  0  0  0  0  0  0  0
    2.2167   -6.7250    0.0000 C   0  0  0  0  0  0  0  0  0  0  0  0
    3.6292   -5.0750    0.0000 C   0  0  0  0  0  0  0  0  0  0  0  0
    1.5000   -7.1375    0.0000 O   0  0  0  0  0  0  0  0  0  0  0  0
    7.5750   -3.4125    0.0000 C   0  0  0  0  0  0  0  0  0  0  0  0
  2  4  1  0
  3  1  1  0
  4  5  1  0
  5  3  1  0
  6  1  1  0
  7  2  1  0
  8  1  1  0
  9  8  1  0
 10  3  1  0
 11  2  1  0
 12  6  1  0
  5 13  1  6
  6 14  1  1
 15 13  1  0
 16  7  1  0
 17 14  2  0
  1 18  1  1
 19 11  1  0
 20 16  1  0
  2 21  1  1
 20 22  1  6
 23 14  1  0
 12 10  1  0
  9  4  1  0
 15  7  1  0
 20 19  1  0
M  END
>  <ID>  (1357) 


>  <MOLENAME>  (1357) 
ELTANOLONE

>  <therap>  (1357) 
anesthetic

>  <ref>  (1357) 
Anesthesiology 80:36 (1994); 

>  <cas#>  (1357) 
128-20-1

>  <source>  (1357) 
semisynthetic

>  <status>  (1357) 
INN

>  <tradename>  (1357) 
nan

>  <SMILES>  (1357) 
CC(=O)[C@H]1CCC2[C@@H]3CCC4C[C@H](O)CC[C@]4(C)C3CC[C@@]21C

>  <standardized_failed>  (1357) 
False

$$$$

     RDKit          2D

 20 19  0  0  0  0  0  0  0  0999 V2000
    8.0167   -2.4667    0.0000 C   0  0  0  0  0  0  0  0  0  0  0  0
    8.7750   -2.7792    0.0000 C   0  0  0  0  0  0  0  0  0  0  0  0
    7.4667   -3.1292    0.0000 N   0  0  0  0  0  0  0  0  0  0  0  0
    3.9292   -3.5375    0.0000 C   0  0  0  0  0  0  0  0  0  0  0  0
    6.6542   -2.9917    0.0000 C   0  0  0  0  0  0  0  0  0  0  0  0
    8.9667   -3.5875    0.0000 N   0  0  0  0  0  0  0  0  0  0  0  0
    9.8417   -4.6417    0.0000 C   0  0  0  0  0  0  0  0  0  0  0  0
    9.3167   -2.1667    0.0000 O   0  0  0  0  0  0  0  0  0  0  0  0
    3.9292   -2.7250    0.0000 O   0  0  0  0  0  0  0  0  0  0  0  0
    4.6917   -3.8125    0.0000 C   0  0  0  0  0  0  0  0  0  0  0  0
    6.3750   -2.2042    0.0000 O   0  0  0  0  0  0  0  0  0  0  0  0
   10.6167   -4.8625    0.0000 O   0  0  0  0  0  0  0  0  0  0  0  0
    9.7917   -3.8292    0.0000 C   0  0  0  0  0  0  0  0  0  0  0  0
    5.3667   -3.3542    0.0000 C   0  0  0  0  0  0  0  0  0  0  0  0
    6.1417   -3.6292    0.0000 C   0  0  0  0  0  0  0  0  0  0  0  0
    3.2125   -3.9417    0.0000 O   0  0  0  0  0  0  0  0  0  0  0  0
    4.6667   -4.6542    0.0000 N   0  0  0  0  0  0  0  0  0  0  0  0
    7.0042   -1.6042    0.0000 S   0  0  0  0  0  0  0  0  0  0  0  0
    9.4250   -5.3542    0.0000 O   0  0  0  0  0  0  0  0  0  0  0  0
    7.8125   -1.6792    0.0000 C   0  0  0  0  0  0  0  0  0  0  0  0
  2  1  1  0
  3  1  1  0
  4 10  1  0
  5  3  1  0
  6  2  1  0
  7 13  1  0
  8  2  2  0
  9  4  2  0
 10 14  1  0
 11  5  2  0
 12  7  2  0
 13  6  1  0
 14 15  1  0
 15  5  1  0
 16  4  1  0
 10 17  1  6
 18 20  1  0
 19  7  1  0
  1 20  1  1
M  END
>  <ID>  (1358) 


>  <MOLENAME>  (1358) 
GLUTATHIONE

>  <therap>  (1358) 
antioxidant

>  <ref>  (1358) 
Pharm Biol 11: 539 (1968)

>  <cas#>  (1358) 
70-18-8

>  <source>  (1358) 
plant and animal tissue

>  <status>  (1358) 
JAN

>  <tradename>  (1358) 
nan

>  <SMILES>  (1358) 
N[C@@H](CCC(=O)N[C@@H](CS)C(=O)NCC(=O)O)C(=O)O

>  <standardized_failed>  (1358) 
False

$$$$

     RDKit          2D

 27 28  0  0  0  0  0  0  0  0999 V2000
    5.4125   -5.5167    0.0000 C   0  0  0  0  0  0  0  0  0  0  0  0
    4.7000   -5.1042    0.0000 C   0  0  0  0  0  0  0  0  0  0  0  0
    6.1250   -5.1042    0.0000 C   0  0  0  0  0  0  0  0  0  0  0  0
    5.4125   -6.3417    0.0000 C   0  0  0  0  0  0  0  0  0  0  0  0
    5.4042   -7.1667    0.0000 N   0  0  0  0  0  0  0  0  0  0  0  0
    6.8375   -5.5125    0.0000 O   0  0  0  0  0  0  0  0  0  0  0  0
    3.9875   -5.5167    0.0000 C   0  0  0  0  0  0  0  0  0  0  0  0
    4.7000   -4.2792    0.0000 C   0  0  0  0  0  0  0  0  0  0  0  0
    6.1250   -4.2792    0.0000 O   0  0  0  0  0  0  0  0  0  0  0  0
    7.5500   -5.1000    0.0000 C   0  0  0  0  0  0  0  0  0  0  0  0
    5.4167   -3.8667    0.0000 C   0  0  0  0  0  0  0  0  0  0  0  0
    3.9875   -3.8667    0.0000 C   0  0  0  0  0  0  0  0  0  0  0  0
    3.2750   -5.1042    0.0000 C   0  0  0  0  0  0  0  0  0  0  0  0
    3.9875   -6.3500    0.0000 C   0  0  0  0  0  0  0  0  0  0  0  0
    8.2625   -5.5042    0.0000 C   0  0  0  0  0  0  0  0  0  0  0  0
    8.2625   -6.3292    0.0000 C   0  0  0  0  0  0  0  0  0  0  0  0
    8.9750   -5.0917    0.0000 C   0  0  0  0  0  0  0  0  0  0  0  0
   10.3958   -5.0875    0.0000 C   0  0  0  0  0  0  0  0  0  0  0  0
    9.6875   -5.5042    0.0000 C   0  0  0  0  0  0  0  0  0  0  0  0
    7.5500   -6.7417    0.0000 C   0  0  0  0  0  0  0  0  0  0  0  0
   11.1125   -5.4917    0.0000 C   0  0  0  0  0  0  0  0  0  0  0  0
    3.9833   -3.0458    0.0000 C   0  0  0  0  0  0  0  0  0  0  0  0
    2.5625   -5.5250    0.0000 C   0  0  0  0  0  0  0  0  0  0  0  0
    3.2750   -6.7625    0.0000 C   0  0  0  0  0  0  0  0  0  0  0  0
    5.4167   -3.0417    0.0000 C   0  0  0  0  0  0  0  0  0  0  0  0
    2.5625   -6.3500    0.0000 C   0  0  0  0  0  0  0  0  0  0  0  0
    4.7000   -2.6292    0.0000 C   0  0  0  0  0  0  0  0  0  0  0  0
  2  1  2  0
  3  1  1  0
  4  1  1  0
  5  4  3  0
  6  3  1  0
  7  2  1  0
  8  2  1  0
  9  3  2  0
 10  6  1  0
 11  8  2  0
 12  8  1  0
 13  7  2  0
 14  7  1  0
 15 10  1  1
 15 16  1  0
 17 15  1  0
 18 19  1  0
 19 17  1  0
 20 16  1  0
 21 18  1  0
 22 12  2  0
 23 13  1  0
 24 14  2  0
 25 11  1  0
 26 23  2  0
 27 22  1  0
 26 24  1  0
 27 25  2  0
M  END
>  <ID>  (1359) 


>  <MOLENAME>  (1359) 
OCTOCRYLENE

>  <therap>  (1359) 
sunscreen

>  <ref>  (1359) 
Arch Derm 146:753 (2010); Contact Dermatitis 64:343 (2011)

>  <cas#>  (1359) 
6197-30-4

>  <source>  (1359) 
synthetic

>  <status>  (1359) 
USP

>  <tradename>  (1359) 
EUSOLEX

>  <SMILES>  (1359) 
CCCC[C@@H](CC)COC(=O)C(C#N)=C(c1ccccc1)c1ccccc1

>  <standardized_failed>  (1359) 
False

$$$$

     RDKit          2D

 13 13  0  0  0  0  0  0  0  0999 V2000
    4.8792   -1.5792    0.0000 C   0  0  0  0  0  0  0  0  0  0  0  0
    1.3125   -2.8250    0.0000 C   0  0  0  0  0  0  0  0  0  0  0  0
    4.1667   -1.9958    0.0000 C   0  0  0  0  0  0  0  0  0  0  0  0
    2.0250   -3.2375    0.0000 N   0  0  0  0  0  0  0  0  0  0  0  0
    4.8750   -0.7542    0.0000 O   0  0  0  0  0  0  0  0  0  0  0  0
    1.3125   -2.0000    0.0000 O   0  0  0  0  0  0  0  0  0  0  0  0
    3.4500   -1.5833    0.0000 C   0  0  0  0  0  0  0  0  0  0  0  0
    4.1667   -2.8250    0.0000 C   0  0  0  0  0  0  0  0  0  0  0  0
    2.7375   -2.8250    0.0000 C   0  0  0  0  0  0  0  0  0  0  0  0
    5.5917   -1.9917    0.0000 O   0  0  0  0  0  0  0  0  0  0  0  0
    3.4500   -3.2375    0.0000 C   0  0  0  0  0  0  0  0  0  0  0  0
    2.7375   -2.0000    0.0000 C   0  0  0  0  0  0  0  0  0  0  0  0
    0.6000   -3.2375    0.0000 C   0  0  0  0  0  0  0  0  0  0  0  0
  2  4  1  0
  3  1  1  0
  4  9  1  0
  5  1  2  0
  6  2  2  0
  7  3  2  0
  8  3  1  0
  9 12  2  0
 10  1  1  0
 11  8  2  0
 12  7  1  0
 13  2  1  0
 11  9  1  0
M  END
>  <ID>  (1360) 


>  <MOLENAME>  (1360) 
ACEDOBEN

>  <therap>  (1360) 
immune stimulant (component)

>  <ref>  (1360) 
Arch Dermatol 119:463 (1983)

>  <cas#>  (1360) 
556-08-1

>  <source>  (1360) 
synthetic

>  <status>  (1360) 
INN

>  <tradename>  (1360) 
IMUNOVIR

>  <SMILES>  (1360) 
CC(=O)Nc1ccc(C(=O)O)cc1

>  <standardized_failed>  (1360) 
False

$$$$

     RDKit          2D

 23 25  0  0  0  0  0  0  0  0999 V2000
    2.7917    1.5750    0.0000 C   0  0  0  0  0  0  0  0  0  0  0  0
    2.2917    2.0625    0.0000 C   0  0  0  0  0  0  0  0  0  0  0  0
    3.5917    1.7125    0.0000 C   0  0  0  0  0  0  0  0  0  0  0  0
    2.2917    2.8958    0.0000 C   0  0  0  0  0  0  0  0  0  0  0  0
    2.5417    0.7875    0.0000 C   0  0  0  0  0  0  0  0  0  0  0  0
    1.5792    1.6500    0.0000 C   0  0  0  0  0  0  0  0  0  0  0  0
    4.0417    1.0083    0.0000 N   0  0  0  0  0  0  0  0  0  0  0  0
    3.9792    2.4708    0.0000 C   0  0  0  0  0  0  0  0  0  0  0  0
    1.5792    3.3083    0.0000 C   0  0  0  0  0  0  0  0  0  0  0  0
    2.0542   -0.7792    0.0000 N   0  0  0  0  0  0  0  0  0  0  0  0
    2.8042    3.3958    0.0000 C   0  0  0  0  0  0  0  0  0  0  0  0
    3.6042    3.2458    0.0000 C   0  0  0  0  0  0  0  0  0  0  0  0
    0.8667    2.8917    0.0000 C   0  0  0  0  0  0  0  0  0  0  0  0
    0.8667    2.0625    0.0000 C   0  0  0  0  0  0  0  0  0  0  0  0
    0.1542    3.3000    0.0000 Cl  0  0  0  0  0  0  0  0  0  0  0  0
    4.6542   -0.2500    0.0000 Cl  0  0  0  0  0  0  0  0  0  0  0  0
    1.7417    0.6083    0.0000 C   0  0  0  0  0  0  0  0  0  0  0  0
    3.1042    0.1833    0.0000 C   0  0  0  0  0  0  0  0  0  0  0  0
    1.4917   -0.1750    0.0000 C   0  0  0  0  0  0  0  0  0  0  0  0
    2.8542   -0.6042    0.0000 C   0  0  0  0  0  0  0  0  0  0  0  0
    4.8917    1.0500    0.0000 C   0  0  0  0  0  0  0  0  0  0  0  0
    4.8167    2.5083    0.0000 C   0  0  0  0  0  0  0  0  0  0  0  0
    5.2667    1.8083    0.0000 C   0  0  0  0  0  0  0  0  0  0  0  0
  2  1  1  0
  3  1  1  0
  4  2  1  0
  5  1  2  0
  6  2  2  0
  7  3  2  0
  8  3  1  0
  9  4  2  0
 10 20  1  0
 11  4  1  0
 12  8  1  0
 13 14  2  0
 14  6  1  0
 15 13  1  0
 17  5  1  0
 18  5  1  0
 19 17  1  0
 20 18  1  0
 21  7  1  0
 22  8  2  0
 23 22  1  0
 19 10  1  0
 12 11  1  0
 21 23  2  0
  9 13  1  0
M  END
>  <ID>  (1361) 


>  <MOLENAME>  (1361) 
DESLORATADINE HYDROCHLORIDE

>  <therap>  (1361) 
H1-antihistamine

>  <ref>  (1361) 
J Allergy Clin Immunol 107:751 (2001)

>  <cas#>  (1361) 
100643-71-8(base)

>  <source>  (1361) 
synthetic; SCH-34117

>  <status>  (1361) 
USAN, INN, BAN

>  <tradename>  (1361) 
CLARINEX

>  <SMILES>  (1361) 
Clc1ccc2C(=C3CCNCC3)c3ncccc3CCc2c1

>  <standardized_failed>  (1361) 
False

$$$$

     RDKit          2D

 12 12  0  0  0  0  0  0  0  0999 V2000
    5.6167   -6.1417    0.0000 C   0  0  0  0  0  0  0  0  0  0  0  0
    5.6167   -6.8917    0.0000 C   0  0  0  0  0  0  0  0  0  0  0  0
    6.2667   -7.2667    0.0000 C   0  0  0  0  0  0  0  0  0  0  0  0
    6.9167   -6.8917    0.0000 C   0  0  0  0  0  0  0  0  0  0  0  0
    6.9167   -6.1417    0.0000 C   0  0  0  0  0  0  0  0  0  0  0  0
    6.2667   -5.7667    0.0000 C   0  0  0  0  0  0  0  0  0  0  0  0
    6.2667   -8.0167    0.0000 Cl  0  0  0  0  0  0  0  0  0  0  0  0
    7.5667   -7.2667    0.0000 Cl  0  0  0  0  0  0  0  0  0  0  0  0
    7.5667   -5.7667    0.0000 Cl  0  0  0  0  0  0  0  0  0  0  0  0
    6.2667   -5.0167    0.0000 Cl  0  0  0  0  0  0  0  0  0  0  0  0
    4.9667   -5.7667    0.0000 Cl  0  0  0  0  0  0  0  0  0  0  0  0
    4.9667   -7.2667    0.0000 Cl  0  0  0  0  0  0  0  0  0  0  0  0
  2  1  1  0
  3  2  1  0
  4  5  1  0
  5  6  1  0
  6  1  1  0
  3  7  1  1
  4  8  1  1
  5  9  1  6
  6 10  1  1
  1 11  1  1
  2 12  1  6
  4  3  1  0
M  END
>  <ID>  (1362) 


>  <MOLENAME>  (1362) 
LINDANE

>  <therap>  (1362) 
pediculicide, insecticide

>  <ref>  (1362) 
Toxicol Appl Pharmacol 14:515 (1969); Toxicol Pathol 11:12 (1983)

>  <cas#>  (1362) 
58-89-9

>  <source>  (1362) 
synthetic; gamma-BHC

>  <status>  (1362) 
USP, INN, BAN

>  <tradename>  (1362) 
SCABENE

>  <SMILES>  (1362) 
Cl[C@H]1[C@H](Cl)[C@@H](Cl)[C@@H](Cl)[C@H](Cl)[C@H]1Cl

>  <standardized_failed>  (1362) 
False

$$$$

     RDKit          2D

 34 37  0  0  0  0  0  0  0  0999 V2000
    6.6042   -2.8125    0.0000 C   0  0  0  0  0  0  0  0  0  0  0  0
    5.1792   -2.8083    0.0000 C   0  0  0  0  0  0  0  0  0  0  0  0
    5.8917   -3.2208    0.0000 C   0  0  0  0  0  0  0  0  0  0  0  0
    2.3250   -1.9875    0.0000 N   0  0  0  0  0  0  0  0  0  0  0  0
    3.7500   -2.8083    0.0000 N   0  0  0  0  0  0  0  0  0  0  0  0
    1.6083   -1.5792    0.0000 C   0  0  0  0  0  0  0  0  0  0  0  0
    4.4667   -3.2208    0.0000 C   0  0  0  0  0  0  0  0  0  0  0  0
    6.6083   -1.9833    0.0000 C   0  0  0  0  0  0  0  0  0  0  0  0
    0.8958   -1.9958    0.0000 C   0  0  0  0  0  0  0  0  0  0  0  0
    1.6042   -0.7542    0.0000 C   0  0  0  0  0  0  0  0  0  0  0  0
    5.1750   -1.9875    0.0000 C   0  0  0  0  0  0  0  0  0  0  0  0
    2.3250   -2.8125    0.0000 C   0  0  0  0  0  0  0  0  0  0  0  0
    3.0333   -1.5708    0.0000 C   0  0  0  0  0  0  0  0  0  0  0  0
    5.8875   -1.5708    0.0000 C   0  0  0  0  0  0  0  0  0  0  0  0
    2.3208   -0.3417    0.0000 C   0  0  0  0  0  0  0  0  0  0  0  0
    0.8917   -0.3500    0.0000 C   0  0  0  0  0  0  0  0  0  0  0  0
    0.1792   -1.5833    0.0000 C   0  0  0  0  0  0  0  0  0  0  0  0
    0.8958   -2.8250    0.0000 C   0  0  0  0  0  0  0  0  0  0  0  0
    3.0375   -3.2208    0.0000 C   0  0  0  0  0  0  0  0  0  0  0  0
    3.7500   -1.9833    0.0000 C   0  0  0  0  0  0  0  0  0  0  0  0
    7.3208   -3.2250    0.0000 O   0  0  0  0  0  0  0  0  0  0  0  0
    5.8917   -4.0458    0.0000 O   0  0  0  0  0  0  0  0  0  0  0  0
    1.6000    0.8917    0.0000 C   0  0  0  0  0  0  0  0  0  0  0  0
   -0.5333   -2.8250    0.0000 C   0  0  0  0  0  0  0  0  0  0  0  0
    0.8833    0.4708    0.0000 C   0  0  0  0  0  0  0  0  0  0  0  0
   -0.5333   -2.0000    0.0000 C   0  0  0  0  0  0  0  0  0  0  0  0
    2.3167    0.4792    0.0000 C   0  0  0  0  0  0  0  0  0  0  0  0
    0.1792   -3.2375    0.0000 C   0  0  0  0  0  0  0  0  0  0  0  0
    1.5958    1.7167    0.0000 F   0  0  0  0  0  0  0  0  0  0  0  0
   -1.2500   -3.2375    0.0000 F   0  0  0  0  0  0  0  0  0  0  0  0
    7.3208   -1.5708    0.0000 O   0  0  0  0  0  0  0  0  0  0  0  0
    7.3208   -4.0500    0.0000 C   0  0  0  0  0  0  0  0  0  0  0  0
    5.1750   -4.4583    0.0000 C   0  0  0  0  0  0  0  0  0  0  0  0
    8.0375   -1.9833    0.0000 C   0  0  0  0  0  0  0  0  0  0  0  0
  2  3  1  0
  3  1  2  0
  4 13  1  0
  5  7  1  0
  6  4  1  0
  7  2  1  0
  8  1  1  0
  9  6  1  0
 10  6  1  0
 11 14  1  0
 12 19  1  0
 13 20  1  0
 14  8  2  0
 15 10  2  0
 16 10  1  0
 17  9  2  0
 18  9  1  0
 19  5  1  0
 20  5  1  0
 21  1  1  0
 22  3  1  0
 23 25  1  0
 24 26  2  0
 25 16  2  0
 26 17  1  0
 27 15  1  0
 28 18  2  0
 29 23  1  0
 30 24  1  0
 31  8  1  0
 32 21  1  0
 33 22  1  0
 34 31  1  0
  2 11  2  0
 12  4  1  0
 28 24  1  0
 23 27  2  0
M  END
>  <ID>  (1363) 


>  <MOLENAME>  (1363) 
LOMERIZINE HYDROCHLORIDE

>  <therap>  (1363) 
antimigraine, cerebral vasodilator, Ca channel blocker

>  <ref>  (1363) 
Chem Pharm Bull 35:3270, 4117 (1987); Arch Int Pharmacodyn  304:206 (1990); Neurochem Res 19:1503 (1994)

>  <cas#>  (1363) 
101477-55-8

>  <source>  (1363) 
synthetic; KB-2796

>  <status>  (1363) 
INN

>  <tradename>  (1363) 
TERRANAS

>  <SMILES>  (1363) 
COc1ccc(CN2CCN(C(c3ccc(F)cc3)c3ccc(F)cc3)CC2)c(OC)c1OC

>  <standardized_failed>  (1363) 
False

$$$$

     RDKit          2D

 23 24  0  0  0  0  0  0  0  0999 V2000
    3.3000   -0.6167    0.0000 N   0  0  0  0  0  0  0  0  0  0  0  0
    4.0125   -0.2042    0.0000 C   0  0  0  0  0  0  0  0  0  0  0  0
    4.7250   -0.6125    0.0000 C   0  0  0  0  0  0  0  0  0  0  0  0
    3.0417   -1.4042    0.0000 C   0  0  0  0  0  0  0  0  0  0  0  0
    5.4375   -0.2000    0.0000 C   0  0  0  0  0  0  0  0  0  0  0  0
    2.2167   -1.4042    0.0000 S   0  0  0  0  0  0  0  0  0  0  0  0
    4.0083    0.6208    0.0000 O   0  0  0  0  0  0  0  0  0  0  0  0
    4.3500   -1.9833    0.0000 O   0  0  0  0  0  0  0  0  0  0  0  0
    3.5292   -2.0708    0.0000 C   0  0  0  0  0  0  0  0  0  0  0  0
    4.8333   -2.6542    0.0000 C   0  0  0  0  0  0  0  0  0  0  0  0
    5.4333    0.6250    0.0000 O   0  0  0  0  0  0  0  0  0  0  0  0
    4.4917   -3.4042    0.0000 C   0  0  0  0  0  0  0  0  0  0  0  0
    2.6292   -0.1292    0.0000 C   0  0  0  0  0  0  0  0  0  0  0  0
    1.9667   -0.6167    0.0000 C   0  0  0  0  0  0  0  0  0  0  0  0
    6.1500   -0.6042    0.0000 O   0  0  0  0  0  0  0  0  0  0  0  0
    3.6708   -3.4875    0.0000 O   0  0  0  0  0  0  0  0  0  0  0  0
    5.6458   -2.5667    0.0000 C   0  0  0  0  0  0  0  0  0  0  0  0
    4.9750   -4.0708    0.0000 C   0  0  0  0  0  0  0  0  0  0  0  0
    6.8625   -0.1917    0.0000 C   0  0  0  0  0  0  0  0  0  0  0  0
    3.3333   -4.2417    0.0000 C   0  0  0  0  0  0  0  0  0  0  0  0
    7.5750   -0.6042    0.0000 C   0  0  0  0  0  0  0  0  0  0  0  0
    6.1333   -3.2292    0.0000 C   0  0  0  0  0  0  0  0  0  0  0  0
    5.7958   -3.9875    0.0000 C   0  0  0  0  0  0  0  0  0  0  0  0
  2  1  1  0
  3  2  1  0
  4  1  1  0
  5  3  1  0
  6  4  1  0
  7  2  2  0
  8  9  1  0
  9  4  1  0
 10  8  1  0
 11  5  2  0
 12 10  2  0
 13  1  1  0
 14 13  1  0
 15  5  1  0
 16 12  1  0
 17 10  1  0
 18 12  1  0
 19 15  1  0
 20 16  1  0
 21 19  1  0
 22 17  2  0
 23 18  2  0
  6 14  1  0
 22 23  1  0
M  END
>  <ID>  (1364) 


>  <MOLENAME>  (1364) 
MOGUISTEINE

>  <therap>  (1364) 
antitussive, non-narcotic

>  <ref>  (1364) 
Am Rev Respir Dis 141 Suppl,:A840 (1990);.Br J Pharmacol 112:795 (1994); J Pharm Pharmacol 48:112 (1996)

>  <cas#>  (1364) 
119637-67-1

>  <source>  (1364) 
synthetic

>  <status>  (1364) 
INN

>  <tradename>  (1364) 
nan

>  <SMILES>  (1364) 
CCOC(=O)CC(=O)N1CCSC1COc1c(OC)cccc1

>  <standardized_failed>  (1364) 
False

$$$$

     RDKit          2D

 28 30  0  0  0  0  0  0  0  0999 V2000
    6.8667   -1.4333    0.0000 N   0  0  0  0  0  0  0  0  0  0  0  0
    7.5917   -2.6667    0.0000 C   0  0  0  0  0  0  0  0  0  0  0  0
    6.1583   -1.8458    0.0000 C   0  0  0  0  0  0  0  0  0  0  0  0
    6.1625   -2.6708    0.0000 C   0  0  0  0  0  0  0  0  0  0  0  0
    5.4458   -1.4333    0.0000 C   0  0  0  0  0  0  0  0  0  0  0  0
    4.7333   -1.8500    0.0000 C   0  0  0  0  0  0  0  0  0  0  0  0
    7.5875   -1.8375    0.0000 C   0  0  0  0  0  0  0  0  0  0  0  0
    6.8792   -3.0833    0.0000 C   0  0  0  0  0  0  0  0  0  0  0  0
   10.6417   -1.2667    0.0000 S   0  0  0  0  0  0  0  0  0  0  0  0
    4.0208   -1.4375    0.0000 C   0  0  0  0  0  0  0  0  0  0  0  0
    4.7333   -2.6750    0.0000 C   0  0  0  0  0  0  0  0  0  0  0  0
    5.4417   -0.6167    0.0000 O   0  0  0  0  0  0  0  0  0  0  0  0
    5.4458   -3.0875    0.0000 C   0  0  0  0  0  0  0  0  0  0  0  0
    8.3083   -3.0750    0.0000 C   0  0  0  0  0  0  0  0  0  0  0  0
    3.6083   -0.7208    0.0000 C   0  0  0  0  0  0  0  0  0  0  0  0
    3.1958   -1.4375    0.0000 C   0  0  0  0  0  0  0  0  0  0  0  0
    6.8667   -0.6125    0.0000 C   0  0  0  0  0  0  0  0  0  0  0  0
   11.2458   -0.9167    0.0000 O   0  0  0  0  0  0  0  0  0  0  0  0
   10.0458   -0.9167    0.0000 O   0  0  0  0  0  0  0  0  0  0  0  0
    6.8792   -3.9083    0.0000 O   0  0  0  0  0  0  0  0  0  0  0  0
    6.1500   -0.2042    0.0000 C   0  0  0  0  0  0  0  0  0  0  0  0
    8.3125   -3.9000    0.0000 O   0  0  0  0  0  0  0  0  0  0  0  0
   10.6417   -1.9625    0.0000 O   0  0  0  0  0  0  0  0  0  0  0  0
    3.8083   -2.2333    0.0000 N   0  0  0  0  0  0  0  0  0  0  0  0
    4.0167   -3.0875    0.0000 F   0  0  0  0  0  0  0  0  0  0  0  0
    9.0208   -2.6625    0.0000 O   0  0  0  0  0  0  0  0  0  0  0  0
   10.6417   -0.5667    0.0000 C   0  0  0  0  0  0  0  0  0  0  0  0
    7.5792   -0.2000    0.0000 C   0  0  0  0  0  0  0  0  0  0  0  0
  2  7  2  0
  3  1  1  0
  4  3  2  0
  5  3  1  0
  6  5  2  0
  7  1  1  0
  8  4  1  0
 10  6  1  0
 11 13  2  0
 12 21  1  0
 13  4  1  0
 14  2  1  0
 15 10  1  0
 16 10  1  0
 17  1  1  0
 18  9  2  0
 19  9  2  0
 20  8  2  0
 21 17  1  0
 22 14  2  0
 23  9  1  0
 24 10  1  0
 25 11  1  0
 26 14  1  0
 27  9  1  0
 17 28  1  6
  5 12  1  0
  2  8  1  0
 11  6  1  0
 15 16  1  0
M  END
>  <ID>  (1365) 


>  <MOLENAME>  (1365) 
PAZUFLOXACIN MESYLATE

>  <therap>  (1365) 
antibacterial

>  <ref>  (1365) 
Antimicrob Agents Chemother 37:384 (1993); Chem Pharm Bull 42:2569 (1994); Jpn J Antibiot 55:412 (2002)

>  <cas#>  (1365) 
163680-77-1; 127045-41-4

>  <source>  (1365) 
symthetic; T-3761

>  <status>  (1365) 
INN, JAN

>  <tradename>  (1365) 
PAZUCROSS

>  <SMILES>  (1365) 
C[C@H]1COc2c(C3(N)CC3)c(F)cc3c2n1cc(C(=O)O)c3=O

>  <standardized_failed>  (1365) 
False

$$$$

     RDKit          2D

 13 14  0  0  0  0  0  0  0  0999 V2000
    4.8542   -0.0792    0.0000 C   0  0  0  0  0  0  0  0  0  0  0  0
    5.6083   -0.4125    0.0000 C   0  0  0  0  0  0  0  0  0  0  0  0
    4.9375    0.7417    0.0000 S   0  0  0  0  0  0  0  0  0  0  0  0
    6.1583    0.2000    0.0000 C   0  0  0  0  0  0  0  0  0  0  0  0
    5.7458    0.9167    0.0000 S   0  0  0  0  0  0  0  0  0  0  0  0
    4.1458   -0.4958    0.0000 C   0  0  0  0  0  0  0  0  0  0  0  0
    6.9792    0.1167    0.0000 S   0  0  0  0  0  0  0  0  0  0  0  0
    3.4292   -0.0833    0.0000 N   0  0  0  0  0  0  0  0  0  0  0  0
    3.4292   -1.7375    0.0000 N   0  0  0  0  0  0  0  0  0  0  0  0
    5.7833   -1.2208    0.0000 C   0  0  0  0  0  0  0  0  0  0  0  0
    4.1458   -1.3250    0.0000 C   0  0  0  0  0  0  0  0  0  0  0  0
    2.7167   -0.5000    0.0000 C   0  0  0  0  0  0  0  0  0  0  0  0
    2.7167   -1.3250    0.0000 C   0  0  0  0  0  0  0  0  0  0  0  0
  2  1  2  0
  3  1  1  0
  4  2  1  0
  5  3  1  0
  6  1  1  0
  7  4  2  0
  8  6  2  0
  9 11  2  0
 10  2  1  0
 11  6  1  0
 12  8  1  0
 13 12  2  0
  5  4  1  0
  9 13  1  0
M  END
>  <ID>  (1366) 


>  <MOLENAME>  (1366) 
OLTIPRAZ

>  <therap>  (1366) 
schistosomicide, antineoplastic

>  <ref>  (1366) 
Carcinogenesis 18:1343 (1997); Cancer Res. 64:6424 (2004)

>  <cas#>  (1366) 
64224-21-1

>  <source>  (1366) 
synthetic

>  <status>  (1366) 
INN

>  <tradename>  (1366) 
nan

>  <SMILES>  (1366) 
Cc1c(-c2nccnc2)ssc1=S

>  <standardized_failed>  (1366) 
False

$$$$

     RDKit          2D

 19 21  0  0  0  0  0  0  0  0999 V2000
    5.0417   -3.3042    0.0000 O   0  0  0  0  0  0  0  0  0  0  0  0
    4.3250   -2.8917    0.0000 C   0  0  0  0  0  0  0  0  0  0  0  0
    5.7500   -2.0583    0.0000 C   0  0  0  0  0  0  0  0  0  0  0  0
    5.7542   -2.8875    0.0000 C   0  0  0  0  0  0  0  0  0  0  0  0
    7.1792   -2.0458    0.0000 C   0  0  0  0  0  0  0  0  0  0  0  0
    8.6125   -2.0292    0.0000 C   0  0  0  0  0  0  0  0  0  0  0  0
    4.3250   -2.0667    0.0000 C   0  0  0  0  0  0  0  0  0  0  0  0
    6.4625   -1.6417    0.0000 C   0  0  0  0  0  0  0  0  0  0  0  0
    5.0333   -1.6500    0.0000 C   0  0  0  0  0  0  0  0  0  0  0  0
    7.8917   -1.6250    0.0000 C   0  0  0  0  0  0  0  0  0  0  0  0
    3.6083   -3.3083    0.0000 N   0  0  0  0  0  0  0  0  0  0  0  0
    7.1875   -2.8750    0.0000 C   0  0  0  0  0  0  0  0  0  0  0  0
    8.6208   -2.8625    0.0000 O   0  0  0  0  0  0  0  0  0  0  0  0
    6.4708   -3.2958    0.0000 C   0  0  0  0  0  0  0  0  0  0  0  0
    9.3208   -1.6083    0.0000 O   0  0  0  0  0  0  0  0  0  0  0  0
    3.6083   -1.6542    0.0000 C   0  0  0  0  0  0  0  0  0  0  0  0
    2.8958   -2.8958    0.0000 C   0  0  0  0  0  0  0  0  0  0  0  0
    7.8833   -0.8000    0.0000 C   0  0  0  0  0  0  0  0  0  0  0  0
    2.8958   -2.0667    0.0000 C   0  0  0  0  0  0  0  0  0  0  0  0
  2  1  1  0
  3  4  2  0
  4  1  1  0
  5 12  1  0
  6 10  1  0
  7  2  2  0
  8  3  1  0
  9  3  1  0
 10  5  1  0
 11  2  1  0
 12 14  2  0
 13  6  2  0
 14  4  1  0
 15  6  1  0
 16  7  1  0
 17 11  2  0
 18 10  1  0
 19 17  1  0
  7  9  1  0
  8  5  2  0
 19 16  2  0
M  END
>  <ID>  (1367) 


>  <MOLENAME>  (1367) 
PRANOPROFEN

>  <therap>  (1367) 
antiinflammatory

>  <ref>  (1367) 
J Ocular Pharmacol Therapeut 23: 280 (2007)

>  <cas#>  (1367) 
52549-17-4

>  <source>  (1367) 
synthetic

>  <status>  (1367) 
INN, JAN

>  <tradename>  (1367) 
NIFLAN

>  <SMILES>  (1367) 
CC(C(=O)O)c1cc2c(cc1)Oc1c(cccn1)C2

>  <standardized_failed>  (1367) 
False

$$$$

     RDKit          2D

 32 36  0  0  0  0  0  0  0  0999 V2000
    5.0125   -4.1292    0.0000 C   0  0  0  0  0  0  0  0  0  0  0  0
    5.0042   -3.3000    0.0000 C   0  0  0  0  0  0  0  0  0  0  0  0
    4.2917   -2.8917    0.0000 N   0  0  0  0  0  0  0  0  0  0  0  0
    3.5833   -4.1333    0.0000 C   0  0  0  0  0  0  0  0  0  0  0  0
    4.3000   -4.5458    0.0000 C   0  0  0  0  0  0  0  0  0  0  0  0
    3.5833   -3.3083    0.0000 C   0  0  0  0  0  0  0  0  0  0  0  0
   -0.6958   -0.8292    0.0000 C   0  0  0  0  0  0  0  0  0  0  0  0
    5.4125   -2.5875    0.0000 C   0  0  0  0  0  0  0  0  0  0  0  0
   -1.1000    0.4417    0.0000 C   0  0  0  0  0  0  0  0  0  0  0  0
    2.8667   -2.8958    0.0000 C   0  0  0  0  0  0  0  0  0  0  0  0
    4.7000   -2.1792    0.0000 C   0  0  0  0  0  0  0  0  0  0  0  0
   -1.3583   -0.3417    0.0000 O   0  0  0  0  0  0  0  0  0  0  0  0
    2.1542   -3.3125    0.0000 C   0  0  0  0  0  0  0  0  0  0  0  0
   -0.0250   -0.3500    0.0000 C   0  0  0  0  0  0  0  0  0  0  0  0
   -0.2750    0.4375    0.0000 O   0  0  0  0  0  0  0  0  0  0  0  0
    2.8667   -4.5500    0.0000 C   0  0  0  0  0  0  0  0  0  0  0  0
    1.4417   -2.9000    0.0000 N   0  0  0  0  0  0  0  0  0  0  0  0
    5.7292   -4.5375    0.0000 C   0  0  0  0  0  0  0  0  0  0  0  0
    2.1542   -4.1375    0.0000 C   0  0  0  0  0  0  0  0  0  0  0  0
    0.0167   -2.0708    0.0000 N   0  0  0  0  0  0  0  0  0  0  0  0
   -0.6958   -1.6542    0.0000 C   0  0  0  0  0  0  0  0  0  0  0  0
    4.3000   -5.3708    0.0000 O   0  0  0  0  0  0  0  0  0  0  0  0
   -1.5833    1.1083    0.0000 O   0  0  0  0  0  0  0  0  0  0  0  0
    0.7292   -3.3125    0.0000 C   0  0  0  0  0  0  0  0  0  0  0  0
    1.4417   -2.0708    0.0000 C   0  0  0  0  0  0  0  0  0  0  0  0
    5.7333   -5.3625    0.0000 O   0  0  0  0  0  0  0  0  0  0  0  0
    0.7333   -1.6583    0.0000 C   0  0  0  0  0  0  0  0  0  0  0  0
    0.0125   -2.8958    0.0000 C   0  0  0  0  0  0  0  0  0  0  0  0
    1.4375   -4.5500    0.0000 F   0  0  0  0  0  0  0  0  0  0  0  0
    6.4417   -4.1208    0.0000 O   0  0  0  0  0  0  0  0  0  0  0  0
    4.4833   -1.3833    0.0000 C   0  0  0  0  0  0  0  0  0  0  0  0
    0.7583   -0.6083    0.0000 C   0  0  0  0  0  0  0  0  0  0  0  0
  2  1  2  0
  3  2  1  0
  4  5  1  0
  5  1  1  0
  6  3  1  0
  7 21  1  0
  8  2  1  0
  9 12  1  0
 10  6  2  0
 11  8  1  0
 12  7  1  0
 13 10  1  0
 14  7  2  0
 15 14  1  0
 16  4  2  0
 17 13  1  0
 18  1  1  0
 19 16  1  0
 20 28  1  0
 21 20  1  0
 22  5  2  0
 23  9  2  0
 24 17  1  0
 25 17  1  0
 26 18  2  0
 27 25  1  0
 28 24  1  0
 29 19  1  0
 30 18  1  0
 31 11  1  0
 32 14  1  0
  3 11  1  0
  4  6  1  0
 19 13  2  0
 20 27  1  0
  9 15  1  0
M  END
>  <ID>  (1368) 


>  <MOLENAME>  (1368) 
PRULIFLOXACIN

>  <therap>  (1368) 
antibacterial

>  <ref>  (1368) 
J Clin Pharmacol 34:930 (1994); Pulm Pharmacol Ther 19:20, 30 (2006)

>  <cas#>  (1368) 
123447-62-1

>  <source>  (1368) 
synthetic; NAD-441A

>  <status>  (1368) 
INN

>  <tradename>  (1368) 
QUISNON

>  <SMILES>  (1368) 
Cc1c(CN2CCN(c3c(F)cc4c(=O)c(C(=O)O)c5CC(C)n5c4c3)CC2)oc(=O)o1

>  <standardized_failed>  (1368) 
False

$$$$

     RDKit          2D

 57 58  0  0  0  0  0  0  0  0999 V2000
    5.2417   -6.3917    0.0000 C   0  0  0  0  0  0  0  0  0  0  0  0
    5.9583   -6.8000    0.0000 C   0  0  0  0  0  0  0  0  0  0  0  0
    4.5333   -6.8083    0.0000 C   0  0  0  0  0  0  0  0  0  0  0  0
    5.2500   -8.0458    0.0000 N   0  0  0  0  0  0  0  0  0  0  0  0
    4.5333   -7.6333    0.0000 C   0  0  0  0  0  0  0  0  0  0  0  0
    7.3750   -5.1458    0.0000 C   0  0  0  0  0  0  0  0  0  0  0  0
    6.6500   -3.9125    0.0000 C   0  0  0  0  0  0  0  0  0  0  0  0
    5.8042   -9.2125    0.0000 P   0  0  0  0  0  0  0  0  0  0  0  0
    5.3917   -2.2125    0.0000 P   0  0  0  0  0  0  0  0  0  0  0  0
   10.4667   -5.9750    0.0000 P   0  0  0  0  0  0  0  0  0  0  0  0
    3.7875   -4.7500    0.0000 P   0  0  0  0  0  0  0  0  0  0  0  0
    6.6708   -6.3833    0.0000 N   0  0  0  0  0  0  0  0  0  0  0  0
    5.9625   -7.6292    0.0000 C   0  0  0  0  0  0  0  0  0  0  0  0
    7.3708   -4.3208    0.0000 C   0  0  0  0  0  0  0  0  0  0  0  0
    5.2375   -5.5667    0.0000 N   0  0  0  0  0  0  0  0  0  0  0  0
    5.9500   -5.1500    0.0000 C   0  0  0  0  0  0  0  0  0  0  0  0
    8.0917   -5.5583    0.0000 C   0  0  0  0  0  0  0  0  0  0  0  0
    6.6417   -3.0875    0.0000 C   0  0  0  0  0  0  0  0  0  0  0  0
    3.8167   -8.0500    0.0000 C   0  0  0  0  0  0  0  0  0  0  0  0
    8.8042   -5.1417    0.0000 N   0  0  0  0  0  0  0  0  0  0  0  0
    7.3542   -2.6708    0.0000 N   0  0  0  0  0  0  0  0  0  0  0  0
    6.6625   -5.5625    0.0000 C   0  0  0  0  0  0  0  0  0  0  0  0
    5.9417   -4.3333    0.0000 C   0  0  0  0  0  0  0  0  0  0  0  0
    3.8167   -6.3958    0.0000 C   0  0  0  0  0  0  0  0  0  0  0  0
    7.3875   -6.7875    0.0000 C   0  0  0  0  0  0  0  0  0  0  0  0
    5.8000   -8.5250    0.0000 O   0  0  0  0  0  0  0  0  0  0  0  0
   10.4583   -5.3042    0.0000 O   0  0  0  0  0  0  0  0  0  0  0  0
    5.3875   -1.5375    0.0000 O   0  0  0  0  0  0  0  0  0  0  0  0
    3.7875   -4.0792    0.0000 O   0  0  0  0  0  0  0  0  0  0  0  0
    6.6792   -8.0375    0.0000 C   0  0  0  0  0  0  0  0  0  0  0  0
    4.7125   -2.2083    0.0000 O   0  0  0  0  0  0  0  0  0  0  0  0
    5.3875   -2.8875    0.0000 O   0  0  0  0  0  0  0  0  0  0  0  0
    5.8000   -9.8875    0.0000 O   0  0  0  0  0  0  0  0  0  0  0  0
   11.1292   -5.9750    0.0000 O   0  0  0  0  0  0  0  0  0  0  0  0
    6.4917   -9.2125    0.0000 O   0  0  0  0  0  0  0  0  0  0  0  0
    9.8000   -5.9708    0.0000 O   0  0  0  0  0  0  0  0  0  0  0  0
   10.4583   -6.6375    0.0000 O   0  0  0  0  0  0  0  0  0  0  0  0
    6.0667   -2.2125    0.0000 O   0  0  0  0  0  0  0  0  0  0  0  0
    4.4625   -4.7500    0.0000 O   0  0  0  0  0  0  0  0  0  0  0  0
    5.1167   -9.2083    0.0000 O   0  0  0  0  0  0  0  0  0  0  0  0
    3.1125   -4.7500    0.0000 O   0  0  0  0  0  0  0  0  0  0  0  0
    3.7875   -5.4250    0.0000 O   0  0  0  0  0  0  0  0  0  0  0  0
    3.1042   -7.6375    0.0000 C   0  0  0  0  0  0  0  0  0  0  0  0
    7.3958   -7.6208    0.0000 C   0  0  0  0  0  0  0  0  0  0  0  0
    3.1042   -6.8125    0.0000 C   0  0  0  0  0  0  0  0  0  0  0  0
    8.0833   -3.9042    0.0000 O   0  0  0  0  0  0  0  0  0  0  0  0
    2.3875   -8.0500    0.0000 Cl  0  0  0  0  0  0  0  0  0  0  0  0
    8.1000   -6.3667    0.0000 O   0  0  0  0  0  0  0  0  0  0  0  0
    9.5542   -5.4750    0.0000 C   0  0  0  0  0  0  0  0  0  0  0  0
    8.1083   -3.0000    0.0000 C   0  0  0  0  0  0  0  0  0  0  0  0
    7.4292   -1.8500    0.0000 C   0  0  0  0  0  0  0  0  0  0  0  0
    8.8833   -4.3208    0.0000 C   0  0  0  0  0  0  0  0  0  0  0  0
    8.8167   -6.7750    0.0000 C   0  0  0  0  0  0  0  0  0  0  0  0
    8.6542   -2.3833    0.0000 C   0  0  0  0  0  0  0  0  0  0  0  0
    8.2333   -1.6750    0.0000 C   0  0  0  0  0  0  0  0  0  0  0  0
    9.6875   -4.1458    0.0000 C   0  0  0  0  0  0  0  0  0  0  0  0
   10.1042   -4.8583    0.0000 C   0  0  0  0  0  0  0  0  0  0  0  0
  2  1  1  0
  3  1  2  0
  4  5  2  0
  5  3  1  0
  6 22  2  0
  7 23  1  0
 12  2  1  0
 13  2  2  0
 14  7  2  0
 15  1  1  0
 16 15  1  0
 17  6  1  0
 18  7  1  0
 19  5  1  0
 20 17  1  0
 21 18  1  0
 22 16  1  0
 23 16  2  0
 24  3  1  0
 25 12  2  0
 26  8  2  0
 27 10  2  0
 28  9  2  0
 29 11  2  0
 30 13  1  0
 31  9  1  0
 32  9  1  0
 33  8  1  0
 34 10  1  0
 35  8  1  0
 36 10  1  0
 37 10  1  0
 38  9  1  0
 39 11  1  0
 40  8  1  0
 41 11  1  0
 42 11  1  0
 43 19  2  0
 44 25  1  0
 45 24  2  0
 46 14  1  0
 47 43  1  0
 48 25  1  0
 49 20  1  0
 50 21  1  0
 51 21  1  0
 52 20  1  0
 53 48  1  0
 54 50  1  0
 55 51  1  0
 56 52  1  0
 57 49  1  0
 13  4  1  0
 43 45  1  0
 44 30  2  0
 14  6  1  0
 55 54  1  0
 56 57  1  0
M  END
>  <ID>  (1369) 


>  <MOLENAME>  (1369) 
PYRONARIDINE TETRAPHOSPHATE

>  <therap>  (1369) 
antimalarial

>  <ref>  (1369) 
Lancet 347:24 (1996); J Antimicrob Chemother 37:511 (1996)

>  <cas#>  (1369) 
76748-86-2

>  <source>  (1369) 
synthetic

>  <status>  (1369) 
INN

>  <tradename>  (1369) 
nan

>  <SMILES>  (1369) 
COc1nc2c(cc1)nc1cc(Cl)ccc1c2Nc1cc(CN2CCCC2)c(O)c(CN2CCCC2)c1

>  <standardized_failed>  (1369) 
False

$$$$

     RDKit          2D

 16 17  0  0  0  0  0  0  0  0999 V2000
    0.8750   -5.5125    0.0000 N   0  0  0  0  0  0  0  0  0  0  0  0
    0.2667   -4.9583    0.0000 C   0  0  0  0  0  0  0  0  0  0  0  0
    1.6875   -5.3375    0.0000 C   0  0  0  0  0  0  0  0  0  0  0  0
   -1.1875   -4.7292    0.0000 N   0  0  0  0  0  0  0  0  0  0  0  0
   -0.5208   -5.2125    0.0000 C   0  0  0  0  0  0  0  0  0  0  0  0
    2.0208   -4.5833    0.0000 C   0  0  0  0  0  0  0  0  0  0  0  0
   -1.8542   -5.2125    0.0000 C   0  0  0  0  0  0  0  0  0  0  0  0
    0.7917   -6.3292    0.0000 C   0  0  0  0  0  0  0  0  0  0  0  0
    1.5458   -6.6667    0.0000 S   0  0  0  0  0  0  0  0  0  0  0  0
    0.4375   -4.1542    0.0000 O   0  0  0  0  0  0  0  0  0  0  0  0
    1.5375   -3.9167    0.0000 O   0  0  0  0  0  0  0  0  0  0  0  0
   -2.6375   -4.9583    0.0000 O   0  0  0  0  0  0  0  0  0  0  0  0
   -0.7750   -6.0000    0.0000 C   0  0  0  0  0  0  0  0  0  0  0  0
    2.1000   -6.0542    0.0000 C   0  0  0  0  0  0  0  0  0  0  0  0
   -1.6000   -6.0000    0.0000 C   0  0  0  0  0  0  0  0  0  0  0  0
    2.8417   -4.4958    0.0000 O   0  0  0  0  0  0  0  0  0  0  0  0
  2  1  1  0
  3  1  1  0
  4  5  1  0
  5  2  1  6
  3  6  1  6
  7  4  1  0
  8  1  1  0
  9  8  1  0
 10  2  2  0
 11  6  2  0
 12  7  2  0
 13  5  1  0
 14  3  1  0
 15 13  1  0
 16  6  1  0
 14  9  1  0
 15  7  1  0
M  END
>  <ID>  (1370) 


>  <MOLENAME>  (1370) 
PIDOTIMOD

>  <therap>  (1370) 
immune stimulant

>  <ref>  (1370) 
Int J Immunother 9:85 (1993); 10:35 (1994); Arzneim Forsch 44:1448 (1994); Arch Pharmacal Research 31: 1153 (2008)

>  <cas#>  (1370) 
121808-62-6

>  <source>  (1370) 
synthetic

>  <status>  (1370) 
INN

>  <tradename>  (1370) 
POLIMOD

>  <SMILES>  (1370) 
O=C1CC[C@@H](C(=O)N2CSC[C@H]2C(=O)O)N1

>  <standardized_failed>  (1370) 
False

$$$$

     RDKit          2D

 25 28  0  0  0  0  0  0  0  0999 V2000
    5.6042   -3.2542    0.0000 C   0  0  0  0  0  0  0  0  0  0  0  0
    4.1750   -3.2583    0.0000 C   0  0  0  0  0  0  0  0  0  0  0  0
    4.8792   -2.0208    0.0000 N   0  0  0  0  0  0  0  0  0  0  0  0
    3.4583   -2.0208    0.0000 C   0  0  0  0  0  0  0  0  0  0  0  0
    4.1708   -2.4333    0.0000 C   0  0  0  0  0  0  0  0  0  0  0  0
    4.8917   -3.6708    0.0000 C   0  0  0  0  0  0  0  0  0  0  0  0
    5.6000   -2.4250    0.0000 C   0  0  0  0  0  0  0  0  0  0  0  0
    2.7458   -2.4375    0.0000 C   0  0  0  0  0  0  0  0  0  0  0  0
    2.7458   -3.2625    0.0000 C   0  0  0  0  0  0  0  0  0  0  0  0
    3.4583   -3.6750    0.0000 C   0  0  0  0  0  0  0  0  0  0  0  0
    2.0333   -2.0250    0.0000 N   0  0  0  0  0  0  0  0  0  0  0  0
    6.3208   -3.6625    0.0000 C   0  0  0  0  0  0  0  0  0  0  0  0
    3.4542   -1.2042    0.0000 S   0  0  0  0  0  0  0  0  0  0  0  0
    0.6042   -1.1958    0.0000 N   0  0  0  0  0  0  0  0  0  0  0  0
    4.8917   -4.4958    0.0000 O   0  0  0  0  0  0  0  0  0  0  0  0
    2.0333   -1.1958    0.0000 C   0  0  0  0  0  0  0  0  0  0  0  0
    1.3250   -2.4333    0.0000 C   0  0  0  0  0  0  0  0  0  0  0  0
    6.3250   -4.4875    0.0000 O   0  0  0  0  0  0  0  0  0  0  0  0
    2.0292   -3.6750    0.0000 F   0  0  0  0  0  0  0  0  0  0  0  0
    4.8792   -1.2000    0.0000 C   0  0  0  0  0  0  0  0  0  0  0  0
    0.6083   -2.0250    0.0000 C   0  0  0  0  0  0  0  0  0  0  0  0
    1.3208   -0.7833    0.0000 C   0  0  0  0  0  0  0  0  0  0  0  0
    7.0333   -3.2500    0.0000 O   0  0  0  0  0  0  0  0  0  0  0  0
    4.1625   -0.7917    0.0000 C   0  0  0  0  0  0  0  0  0  0  0  0
   -0.1083   -0.7875    0.0000 C   0  0  0  0  0  0  0  0  0  0  0  0
  2  6  1  0
  3  7  1  0
  4  5  2  0
  5  3  1  0
  6  1  1  0
  7  1  2  0
  8  4  1  0
  9 10  1  0
 10  2  2  0
 11  8  1  0
 12  1  1  0
 13 24  1  0
 14 21  1  0
 15  6  2  0
 16 11  1  0
 17 11  1  0
 18 12  2  0
 19  9  1  0
 20  3  1  0
 21 17  1  0
 22 16  1  0
 23 12  1  0
 24 20  1  0
 25 14  1  0
  2  5  1  0
  9  8  2  0
  4 13  1  0
 14 22  1  0
M  END
>  <ID>  (1371) 


>  <MOLENAME>  (1371) 
RUFLOXACIN HYDROCHLORIDE

>  <therap>  (1371) 
antibacterial

>  <ref>  (1371) 
Infection 21:106 (1993); Antimicrob Agents Chemother 37:2298 (1993)

>  <cas#>  (1371) 
106017-08-7, 101363-10-4

>  <source>  (1371) 
synthetic; MF-934, ISF-09334

>  <status>  (1371) 
INN, BAN

>  <tradename>  (1371) 
TEBRAXIN

>  <SMILES>  (1371) 
CN1CCN(c2c(F)cc3c(=O)c(C(=O)O)cn4CCSc2c34)CC1

>  <standardized_failed>  (1371) 
False

$$$$

     RDKit          2D

 24 26  0  0  0  0  0  0  0  0999 V2000
    5.0875   -4.3083    0.0000 N   0  0  0  0  0  0  0  0  0  0  0  0
    5.5792   -4.9750    0.0000 C   0  0  0  0  0  0  0  0  0  0  0  0
    4.3042   -4.5708    0.0000 C   0  0  0  0  0  0  0  0  0  0  0  0
    5.0958   -5.6458    0.0000 N   0  0  0  0  0  0  0  0  0  0  0  0
    6.4042   -4.9708    0.0000 S   0  0  0  0  0  0  0  0  0  0  0  0
    3.5875   -4.1583    0.0000 N   0  0  0  0  0  0  0  0  0  0  0  0
    7.6458   -5.6792    0.0000 C   0  0  0  0  0  0  0  0  0  0  0  0
    8.0458   -4.9625    0.0000 C   0  0  0  0  0  0  0  0  0  0  0  0
    4.3083   -5.3958    0.0000 C   0  0  0  0  0  0  0  0  0  0  0  0
    6.8208   -5.6833    0.0000 C   0  0  0  0  0  0  0  0  0  0  0  0
    8.8708   -4.9542    0.0000 C   0  0  0  0  0  0  0  0  0  0  0  0
    8.0583   -6.3917    0.0000 N   0  0  0  0  0  0  0  0  0  0  0  0
    9.2917   -5.6708    0.0000 C   0  0  0  0  0  0  0  0  0  0  0  0
    2.8750   -4.5750    0.0000 C   0  0  0  0  0  0  0  0  0  0  0  0
    8.8833   -6.3875    0.0000 C   0  0  0  0  0  0  0  0  0  0  0  0
    6.8125   -4.2542    0.0000 O   0  0  0  0  0  0  0  0  0  0  0  0
    3.5875   -5.8125    0.0000 C   0  0  0  0  0  0  0  0  0  0  0  0
    2.8750   -5.4000    0.0000 C   0  0  0  0  0  0  0  0  0  0  0  0
    9.2750   -4.2375    0.0000 O   0  0  0  0  0  0  0  0  0  0  0  0
    2.1625   -4.1625    0.0000 O   0  0  0  0  0  0  0  0  0  0  0  0
    7.6292   -4.2542    0.0000 C   0  0  0  0  0  0  0  0  0  0  0  0
   10.1167   -5.6625    0.0000 C   0  0  0  0  0  0  0  0  0  0  0  0
   10.1000   -4.2292    0.0000 C   0  0  0  0  0  0  0  0  0  0  0  0
    2.1625   -3.3375    0.0000 C   0  0  0  0  0  0  0  0  0  0  0  0
  2  1  2  0
  3  1  1  0
  4  2  1  0
  5  2  1  0
  6  3  2  0
  7 10  1  0
  8  7  2  0
  9  3  1  0
 10  5  1  0
 11  8  1  0
 12  7  1  0
 13 11  2  0
 14  6  1  0
 15 12  2  0
 16  5  2  0
 17  9  2  0
 18 17  1  0
 19 11  1  0
 20 14  1  0
 21  8  1  0
 22 13  1  0
 23 19  1  0
 24 20  1  0
  4  9  1  0
 18 14  2  0
 13 15  1  0
M  END
>  <ID>  (1372) 


>  <MOLENAME>  (1372) 
TENATOPRAZOLE

>  <therap>  (1372) 
anti-ulcer, proton pump inhibitor

>  <ref>  (1372) 
Aliment Pharmacol Ther 19:655 (2004); Biochem Pharmacol 71:837 (2006)

>  <cas#>  (1372) 
113712-98-4

>  <source>  (1372) 
synthetic

>  <status>  (1372) 
INN, JAN

>  <tradename>  (1372) 
nan

>  <SMILES>  (1372) 
COc1ccc2[nH]c([S+]([O-])Cc3ncc(C)c(OC)c3C)nc2n1

>  <standardized_failed>  (1372) 
False

$$$$

     RDKit          2D

 22 24  0  0  0  0  0  0  0  0999 V2000
    8.0375   -2.4167    0.0000 C   0  0  0  0  0  0  0  0  0  0  0  0
    7.2125   -2.4167    0.0000 C   0  0  0  0  0  0  0  0  0  0  0  0
    8.5250   -3.0792    0.0000 C   0  0  0  0  0  0  0  0  0  0  0  0
    4.6125   -1.6542    0.0000 N   0  0  0  0  0  0  0  0  0  0  0  0
    8.5250   -1.7458    0.0000 C   0  0  0  0  0  0  0  0  0  0  0  0
    9.3083   -2.8250    0.0000 N   0  0  0  0  0  0  0  0  0  0  0  0
    3.4250   -0.7917    0.0000 C   0  0  0  0  0  0  0  0  0  0  0  0
    4.6125   -2.7167    0.0000 C   0  0  0  0  0  0  0  0  0  0  0  0
    6.2042   -0.9375    0.0000 C   0  0  0  0  0  0  0  0  0  0  0  0
    6.8042   -1.7042    0.0000 O   0  0  0  0  0  0  0  0  0  0  0  0
    4.7792   -1.1375    0.0000 C   0  0  0  0  0  0  0  0  0  0  0  0
    5.5500   -2.1542    0.0000 C   0  0  0  0  0  0  0  0  0  0  0  0
    9.3042   -2.0000    0.0000 C   0  0  0  0  0  0  0  0  0  0  0  0
    6.8000   -3.1292    0.0000 O   0  0  0  0  0  0  0  0  0  0  0  0
    3.4875   -2.7167    0.0000 C   0  0  0  0  0  0  0  0  0  0  0  0
    2.6917   -1.8000    0.0000 C   0  0  0  0  0  0  0  0  0  0  0  0
    3.3333   -1.8125    0.0000 C   0  0  0  0  0  0  0  0  0  0  0  0
    5.3000   -0.0917    0.0000 Cl  0  0  0  0  0  0  0  0  0  0  0  0
    8.3500   -0.9458    0.0000 C   0  0  0  0  0  0  0  0  0  0  0  0
    9.9125   -1.4500    0.0000 C   0  0  0  0  0  0  0  0  0  0  0  0
    8.9583   -0.3958    0.0000 C   0  0  0  0  0  0  0  0  0  0  0  0
    9.7417   -0.6458    0.0000 C   0  0  0  0  0  0  0  0  0  0  0  0
  2  1  1  0
  3  1  2  0
  4  7  1  0
  5  1  1  0
  6  3  1  0
  7 11  1  0
  8 12  1  0
  9 10  1  0
 10  2  1  0
 11  9  1  0
 12  9  1  0
 13  5  2  0
 14  2  2  0
 15  8  1  0
 16  7  1  0
 17  4  1  0
 19  5  1  0
 20 13  1  0
 21 19  2  0
 22 21  1  0
 13  6  1  0
 22 20  2  0
  4  8  1  0
 16 15  1  0
M  END
>  <ID>  (1373) 


>  <MOLENAME>  (1373) 
TROPISETRON HYDROCHLORIDE

>  <therap>  (1373) 
antiemetic

>  <ref>  (1373) 
Nature 316:126 (1985); Anticancer Drugs 2:343 (1991); Ann Oncol 4 Suppl 3:S15 (1993)

>  <cas#>  (1373) 
105826-92-4, 89565-68-4

>  <source>  (1373) 
synthetic

>  <status>  (1373) 
INN, BAN

>  <tradename>  (1373) 
NAVOBAN

>  <SMILES>  (1373) 
CN1C2CCC1CC(OC(=O)c1c[nH]c3c1cccc3)C2

>  <standardized_failed>  (1373) 
False

$$$$

     RDKit          2D

 37 36  0  0  0  0  0  0  0  0999 V2000
    8.6417   -1.1000    0.0000 N   0  0  0  0  0  0  0  0  0  0  0  0
   11.1208   -3.9542    0.0000 C   0  0  0  0  0  0  0  0  0  0  0  0
    4.9250   -0.3875    0.0000 C   0  0  0  0  0  0  0  0  0  0  0  0
    8.2292   -0.3875    0.0000 N   0  0  0  0  0  0  0  0  0  0  0  0
    0.8792   -0.4667    0.0000 C   0  0  0  0  0  0  0  0  0  0  0  0
   12.7125   -5.4625    0.0000 C   0  0  0  0  0  0  0  0  0  0  0  0
    5.7500   -0.3875    0.0000 C   0  0  0  0  0  0  0  0  0  0  0  0
   10.7042   -3.2417    0.0000 C   0  0  0  0  0  0  0  0  0  0  0  0
    2.6542   -0.1250    0.0000 C   0  0  0  0  0  0  0  0  0  0  0  0
   14.4875   -5.1167    0.0000 C   0  0  0  0  0  0  0  0  0  0  0  0
   10.7083   -4.6667    0.0000 N   0  0  0  0  0  0  0  0  0  0  0  0
    4.5125   -1.1000    0.0000 N   0  0  0  0  0  0  0  0  0  0  0  0
   13.3042   -5.1167    0.0000 N   0  0  0  0  0  0  0  0  0  0  0  0
    1.4667   -0.1250    0.0000 N   0  0  0  0  0  0  0  0  0  0  0  0
    9.4667   -1.1000    0.0000 N   0  0  0  0  0  0  0  0  0  0  0  0
    0.2875   -0.1250    0.0000 O   0  0  0  0  0  0  0  0  0  0  0  0
   12.1208   -5.1208    0.0000 O   0  0  0  0  0  0  0  0  0  0  0  0
    2.6500    0.5583    0.0000 O   0  0  0  0  0  0  0  0  0  0  0  0
   14.4833   -4.4417    0.0000 O   0  0  0  0  0  0  0  0  0  0  0  0
    6.1625    0.3292    0.0000 C   0  0  0  0  0  0  0  0  0  0  0  0
   11.1167   -2.5208    0.0000 C   0  0  0  0  0  0  0  0  0  0  0  0
    6.1625   -1.1042    0.0000 C   0  0  0  0  0  0  0  0  0  0  0  0
    9.8792   -3.2417    0.0000 C   0  0  0  0  0  0  0  0  0  0  0  0
    4.5125    0.3292    0.0000 N   0  0  0  0  0  0  0  0  0  0  0  0
   11.9458   -3.9500    0.0000 N   0  0  0  0  0  0  0  0  0  0  0  0
   13.8917   -5.4625    0.0000 C   0  0  0  0  0  0  0  0  0  0  0  0
    2.0625   -0.4667    0.0000 C   0  0  0  0  0  0  0  0  0  0  0  0
    7.4042   -0.3875    0.0000 C   0  0  0  0  0  0  0  0  0  0  0  0
    9.8792   -1.8167    0.0000 C   0  0  0  0  0  0  0  0  0  0  0  0
   15.0750   -5.4625    0.0000 O   0  0  0  0  0  0  0  0  0  0  0  0
    3.2417   -0.4667    0.0000 O   0  0  0  0  0  0  0  0  0  0  0  0
    6.9875   -1.1042    0.0000 C   0  0  0  0  0  0  0  0  0  0  0  0
    6.9833    0.3292    0.0000 C   0  0  0  0  0  0  0  0  0  0  0  0
    9.4667   -2.5250    0.0000 C   0  0  0  0  0  0  0  0  0  0  0  0
   10.7000   -1.8083    0.0000 C   0  0  0  0  0  0  0  0  0  0  0  0
    0.8792   -1.1500    0.0000 C   0  0  0  0  0  0  0  0  0  0  0  0
   12.7125   -6.1417    0.0000 C   0  0  0  0  0  0  0  0  0  0  0  0
  2  8  1  0
  3  7  1  0
  4  1  2  0
  7 20  2  0
  8 23  2  0
  9 27  1  0
 10 26  1  0
 11  2  2  0
 12  3  2  0
 13  6  1  0
 14  5  1  0
 15  1  1  0
 16  5  2  0
 17  6  2  0
 18  9  2  0
 19 10  2  0
 20 33  1  0
 21 35  2  0
 22 32  2  0
 23 34  1  0
 24  3  1  0
 25  2  1  0
 26 13  1  0
 27 14  1  0
 28  4  1  0
 29 15  1  0
 30 10  1  0
 31  9  1  0
 32 28  1  0
 33 28  2  0
 34 29  2  0
 35 29  1  0
 36  5  1  0
 37  6  1  0
 21  8  1  0
 22  7  1  0
M  END
>  <ID>  (1374) 


>  <MOLENAME>  (1374) 
DIMINAZENE ACETURATE

>  <therap>  (1374) 
antiprotozoal as aceturate

>  <ref>  (1374) 
CR Seances Acad Sci Ser D 271:730 (1970); Antibiotics 3:34 (1975)

>  <cas#>  (1374) 
536-71-0; 908-54-3(aceturate)

>  <source>  (1374) 
synthetic

>  <status>  (1374) 
INN, BAN

>  <tradename>  (1374) 
BERENIL

>  <SMILES>  (1374) 
N=C(N)c1ccc(/N=N/Nc2ccc(C(=N)N)cc2)cc1

>  <standardized_failed>  (1374) 
False

$$$$

     RDKit          2D

 16 17  0  0  0  0  0  0  0  0999 V2000
    4.5708   -3.3625    0.0000 C   0  0  0  0  0  0  0  0  0  0  0  0
    4.5708   -4.1875    0.0000 N   0  0  0  0  0  0  0  0  0  0  0  0
    5.2833   -2.9458    0.0000 N   0  0  0  0  0  0  0  0  0  0  0  0
    3.8583   -2.9500    0.0000 C   0  0  0  0  0  0  0  0  0  0  0  0
    6.0000   -4.1833    0.0000 N   0  0  0  0  0  0  0  0  0  0  0  0
    5.9958   -3.3542    0.0000 C   0  0  0  0  0  0  0  0  0  0  0  0
    5.2875   -4.5958    0.0000 C   0  0  0  0  0  0  0  0  0  0  0  0
    3.8583   -2.1208    0.0000 C   0  0  0  0  0  0  0  0  0  0  0  0
    3.1417   -3.3625    0.0000 C   0  0  0  0  0  0  0  0  0  0  0  0
    6.7083   -2.9375    0.0000 N   0  0  0  0  0  0  0  0  0  0  0  0
    5.2875   -5.4208    0.0000 N   0  0  0  0  0  0  0  0  0  0  0  0
    3.1417   -1.7083    0.0000 C   0  0  0  0  0  0  0  0  0  0  0  0
    2.4292   -2.9500    0.0000 C   0  0  0  0  0  0  0  0  0  0  0  0
    4.5708   -1.7042    0.0000 Cl  0  0  0  0  0  0  0  0  0  0  0  0
    2.4292   -2.1250    0.0000 C   0  0  0  0  0  0  0  0  0  0  0  0
    1.7125   -3.3625    0.0000 Cl  0  0  0  0  0  0  0  0  0  0  0  0
  2  1  2  0
  3  1  1  0
  4  1  1  0
  5  7  2  0
  6  3  2  0
  7  2  1  0
  8  4  2  0
  9  4  1  0
 10  6  1  0
 11  7  1  0
 12  8  1  0
 13  9  2  0
 14  8  1  0
 15 13  1  0
 16 13  1  0
  6  5  1  0
 15 12  2  0
M  END
>  <ID>  (1375) 


>  <MOLENAME>  (1375) 
IRSOGLADINE MALEATE

>  <therap>  (1375) 
anti-ulcer

>  <ref>  (1375) 
Life Sci 76:71 (2002); World J Gastroenterol 14:4784 (2008)

>  <cas#>  (1375) 
57381-26-1

>  <source>  (1375) 
synthetic

>  <status>  (1375) 
INN

>  <tradename>  (1375) 
GASLON

>  <SMILES>  (1375) 
Nc1nc(-c2c(Cl)ccc(Cl)c2)nc(N)n1

>  <standardized_failed>  (1375) 
False

$$$$

     RDKit          2D

 13 13  0  0  0  0  0  0  0  0999 V2000
    5.6042   -3.0917    0.0000 N   0  0  0  0  0  0  0  0  0  0  0  0
    4.8875   -4.3292    0.0000 N   0  0  0  0  0  0  0  0  0  0  0  0
    4.1750   -3.0917    0.0000 N   0  0  0  0  0  0  0  0  0  0  0  0
    5.6042   -3.9167    0.0000 C   0  0  0  0  0  0  0  0  0  0  0  0
    4.8875   -2.6792    0.0000 C   0  0  0  0  0  0  0  0  0  0  0  0
    4.1750   -3.9167    0.0000 C   0  0  0  0  0  0  0  0  0  0  0  0
    4.8792   -1.8542    0.0000 N   0  0  0  0  0  0  0  0  0  0  0  0
    6.3167   -4.3292    0.0000 N   0  0  0  0  0  0  0  0  0  0  0  0
    3.4542   -4.3292    0.0000 Cl  0  0  0  0  0  0  0  0  0  0  0  0
    6.3167   -5.1542    0.0000 C   0  0  0  0  0  0  0  0  0  0  0  0
    5.6000   -1.4417    0.0000 C   0  0  0  0  0  0  0  0  0  0  0  0
    7.0375   -5.5667    0.0000 C   0  0  0  0  0  0  0  0  0  0  0  0
    5.5917   -0.6167    0.0000 C   0  0  0  0  0  0  0  0  0  0  0  0
  2  4  1  0
  3  5  2  0
  4  1  2  0
  5  1  1  0
  6  3  1  0
  7  5  1  0
  8  4  1  0
  9  6  1  0
 10  8  1  0
 11  7  1  0
 12 10  1  0
 13 11  1  0
  2  6  2  0
M  END
>  <ID>  (1376) 


>  <MOLENAME>  (1376) 
SIMAZINE

>  <therap>  (1376) 
herbicide

>  <ref>  (1376) 
nan

>  <cas#>  (1376) 
122-34-9

>  <source>  (1376) 
synthetic

>  <status>  (1376) 
agricultural use

>  <tradename>  (1376) 
nan

>  <SMILES>  (1376) 
CCNc1nc(NCC)nc(Cl)n1

>  <standardized_failed>  (1376) 
False

$$$$

     RDKit          2D

 13 12  0  0  0  0  0  0  0  0999 V2000
    5.9292   -1.3750    0.0000 C   0  0  0  0  0  0  0  0  0  0  0  0
    5.1417   -2.4458    0.0000 N   0  0  0  0  0  0  0  0  0  0  0  0
    5.1542   -1.6542    0.0000 C   0  0  0  0  0  0  0  0  0  0  0  0
    4.4208   -2.8458    0.0000 C   0  0  0  0  0  0  0  0  0  0  0  0
    3.1708   -0.8292    0.0000 C   0  0  0  0  0  0  0  0  0  0  0  0
    5.9292   -0.5542    0.0000 O   0  0  0  0  0  0  0  0  0  0  0  0
    3.7125   -2.4208    0.0000 O   0  0  0  0  0  0  0  0  0  0  0  0
    3.4583   -0.0292    0.0000 O   0  0  0  0  0  0  0  0  0  0  0  0
    4.4708   -1.1917    0.0000 C   0  0  0  0  0  0  0  0  0  0  0  0
    3.6875   -1.4708    0.0000 C   0  0  0  0  0  0  0  0  0  0  0  0
    2.3542   -0.9625    0.0000 N   0  0  0  0  0  0  0  0  0  0  0  0
    6.6042   -1.8500    0.0000 O   0  0  0  0  0  0  0  0  0  0  0  0
    4.4083   -3.6708    0.0000 C   0  0  0  0  0  0  0  0  0  0  0  0
  3  2  1  0
  3  1  1  0
  4  2  1  0
  5 10  1  0
  6  1  2  0
  7  4  2  0
  8  5  2  0
  3  9  1  1
 10  9  1  0
 11  5  1  0
 12  1  1  0
 13  4  1  0
M  END
>  <ID>  (1377) 


>  <MOLENAME>  (1377) 
ACEGLUTAMIDE

>  <therap>  (1377) 
nootropic

>  <ref>  (1377) 
Acupuncture & Electro-Therap Res Intl J 17:61 (1992)

>  <cas#>  (1377) 
2490-97-3

>  <source>  (1377) 
semisynthetic; KW-110

>  <status>  (1377) 
INN

>  <tradename>  (1377) 
ACUTIL-S

>  <SMILES>  (1377) 
CC(=O)N[C@@H](CCC(N)=O)C(=O)O

>  <standardized_failed>  (1377) 
False

$$$$

     RDKit          2D

 14 15  0  0  0  0  0  0  0  0999 V2000
    5.6417   -0.8042    0.0000 C   0  0  0  0  0  0  0  0  0  0  0  0
    5.4917   -0.0542    0.0000 C   0  0  0  0  0  0  0  0  0  0  0  0
    6.3667   -1.2292    0.0000 C   0  0  0  0  0  0  0  0  0  0  0  0
    5.4292   -1.4667    0.0000 C   0  0  0  0  0  0  0  0  0  0  0  0
    6.1042   -1.8042    0.0000 C   0  0  0  0  0  0  0  0  0  0  0  0
    5.0542   -1.2167    0.0000 C   0  0  0  0  0  0  0  0  0  0  0  0
    7.1917   -1.2292    0.0000 O   0  0  0  0  0  0  0  0  0  0  0  0
    7.6042   -1.9458    0.0000 C   0  0  0  0  0  0  0  0  0  0  0  0
    4.7167   -1.8167    0.0000 C   0  0  0  0  0  0  0  0  0  0  0  0
    7.1917   -2.6583    0.0000 O   0  0  0  0  0  0  0  0  0  0  0  0
    6.3542   -0.3917    0.0000 C   0  0  0  0  0  0  0  0  0  0  0  0
    4.7792    0.3583    0.0000 C   0  0  0  0  0  0  0  0  0  0  0  0
    6.2042    0.3583    0.0000 C   0  0  0  0  0  0  0  0  0  0  0  0
    8.4292   -1.9458    0.0000 C   0  0  0  0  0  0  0  0  0  0  0  0
  2  1  1  0
  3  1  1  0
  4  2  1  0
  5  3  1  0
  6  1  1  0
  7  3  1  0
  8  7  1  0
  9  6  1  0
 10  8  2  0
 11  1  1  0
 12  2  1  0
 13  2  1  0
 14  8  1  0
  9  4  1  0
  5  4  1  0
M  END
>  <ID>  (1378) 


>  <MOLENAME>  (1378) 
BORNYL ACETATE

>  <therap>  (1378) 
flavor, fragrance agent

>  <ref>  (1378) 
Compt Rend 109:29 (1889); JACS 82:125 (1960)

>  <cas#>  (1378) 
76-49-3

>  <source>  (1378) 
semisynthetic

>  <status>  (1378) 
INN

>  <tradename>  (1378) 
nan

>  <SMILES>  (1378) 
CC(=O)OC1CC2CCC1(C)C2(C)C

>  <standardized_failed>  (1378) 
False

$$$$

     RDKit          2D

 20 21  0  0  0  0  0  0  0  0999 V2000
    4.8250   -1.0500    0.0000 C   0  0  0  0  0  0  0  0  0  0  0  0
    4.8250   -1.8750    0.0000 N   0  0  0  0  0  0  0  0  0  0  0  0
    5.5375   -0.6375    0.0000 C   0  0  0  0  0  0  0  0  0  0  0  0
    5.2458   -3.1417    0.0000 N   0  0  0  0  0  0  0  0  0  0  0  0
    5.5000   -2.3542    0.0000 C   0  0  0  0  0  0  0  0  0  0  0  0
    4.1083   -0.6417    0.0000 O   0  0  0  0  0  0  0  0  0  0  0  0
    6.2542   -1.0458    0.0000 C   0  0  0  0  0  0  0  0  0  0  0  0
    4.1625   -2.3625    0.0000 C   0  0  0  0  0  0  0  0  0  0  0  0
    4.4208   -3.1458    0.0000 C   0  0  0  0  0  0  0  0  0  0  0  0
    5.5333    0.1875    0.0000 O   0  0  0  0  0  0  0  0  0  0  0  0
    3.3958   -1.0583    0.0000 C   0  0  0  0  0  0  0  0  0  0  0  0
    1.9667   -1.8875    0.0000 C   0  0  0  0  0  0  0  0  0  0  0  0
    1.2500   -2.3000    0.0000 Cl  0  0  0  0  0  0  0  0  0  0  0  0
    2.6792   -0.6458    0.0000 C   0  0  0  0  0  0  0  0  0  0  0  0
    3.3958   -1.8875    0.0000 C   0  0  0  0  0  0  0  0  0  0  0  0
    1.9667   -1.0625    0.0000 C   0  0  0  0  0  0  0  0  0  0  0  0
    2.6792   -2.3000    0.0000 C   0  0  0  0  0  0  0  0  0  0  0  0
    6.2542   -1.8708    0.0000 C   0  0  0  0  0  0  0  0  0  0  0  0
    6.9667   -1.4542    0.0000 C   0  0  0  0  0  0  0  0  0  0  0  0
    6.9667   -0.6292    0.0000 C   0  0  0  0  0  0  0  0  0  0  0  0
  2  1  1  0
  3  1  1  0
  4  5  2  0
  5  2  1  0
  6  1  1  0
  7  3  1  0
  8  2  1  0
  9  8  2  0
 10  3  2  0
 11  6  1  0
 12 17  2  0
 13 12  1  0
 14 11  1  0
 15 11  2  0
 16 14  2  0
 17 15  1  0
 18  7  1  0
 19  7  1  0
 20  7  1  0
  4  9  1  0
 12 16  1  0
M  END
>  <ID>  (1379) 


>  <MOLENAME>  (1379) 
CLIMBAZOLE

>  <therap>  (1379) 
antifungal

>  <ref>  (1379) 
Praxis (2001), 90(33), 1346-9; J. Vet. Med., Ser. B (1997), 44(4), 193-7

>  <cas#>  (1379) 
38083-17-9

>  <source>  (1379) 
synthetic

>  <status>  (1379) 
INN, BAN

>  <tradename>  (1379) 
nan

>  <SMILES>  (1379) 
CC(C)(C)C(=O)C(Oc1ccc(Cl)cc1)n1ccnc1

>  <standardized_failed>  (1379) 
False

$$$$

     RDKit          2D

 12 13  0  0  0  0  0  0  0  0999 V2000
    5.8875   -2.5167    0.0000 C   0  0  0  0  0  0  0  0  0  0  0  0
    6.6042   -2.9292    0.0000 N   0  0  0  0  0  0  0  0  0  0  0  0
    5.1750   -2.9375    0.0000 N   0  0  0  0  0  0  0  0  0  0  0  0
    5.8875   -4.1750    0.0000 N   0  0  0  0  0  0  0  0  0  0  0  0
    5.1750   -3.7625    0.0000 C   0  0  0  0  0  0  0  0  0  0  0  0
    6.6042   -3.7625    0.0000 C   0  0  0  0  0  0  0  0  0  0  0  0
    5.8792   -1.6917    0.0000 N   0  0  0  0  0  0  0  0  0  0  0  0
    6.6000   -1.2792    0.0000 C   0  0  0  0  0  0  0  0  0  0  0  0
    7.4250   -1.2792    0.0000 C   0  0  0  0  0  0  0  0  0  0  0  0
    7.0042   -0.5667    0.0000 C   0  0  0  0  0  0  0  0  0  0  0  0
    4.4542   -4.1750    0.0000 N   0  0  0  0  0  0  0  0  0  0  0  0
    7.3167   -4.1750    0.0000 N   0  0  0  0  0  0  0  0  0  0  0  0
  2  1  2  0
  3  1  1  0
  4  5  1  0
  5  3  2  0
  6  2  1  0
  7  1  1  0
  8  7  1  0
  9  8  1  0
 10  8  1  0
 11  5  1  0
 12  6  1  0
  6  4  2  0
 10  9  1  0
M  END
>  <ID>  (1380) 


>  <MOLENAME>  (1380) 
CYROMAZINE

>  <therap>  (1380) 
acaricide, insecticide, ectoparisitide

>  <ref>  (1380) 
J. Econ. Entomol. (1986), 79(5), 1192-5; J. Med. Entomol. (1984), 21(4), 427-31; Vet. Rec. (1980), 106(14), 306-7

>  <cas#>  (1380) 
66215-27-8

>  <source>  (1380) 
synthetic; CGA-72662

>  <status>  (1380) 
INN, BAN

>  <tradename>  (1380) 
nan

>  <SMILES>  (1380) 
Nc1nc(NC2CC2)nc(N)n1

>  <standardized_failed>  (1380) 
False

$$$$

     RDKit          2D

 10 10  0  0  0  0  0  0  0  0999 V2000
    5.6792   -3.7375    0.0000 N   0  0  0  0  0  0  0  0  0  0  0  0
    6.3958   -2.4958    0.0000 C   0  0  0  0  0  0  0  0  0  0  0  0
    7.1083   -2.0792    0.0000 C   0  0  0  0  0  0  0  0  0  0  0  0
    6.3958   -3.3250    0.0000 C   0  0  0  0  0  0  0  0  0  0  0  0
    5.6750   -4.5625    0.0000 O   0  0  0  0  0  0  0  0  0  0  0  0
    7.1042   -1.2542    0.0000 O   0  0  0  0  0  0  0  0  0  0  0  0
    7.8250   -2.4875    0.0000 O   0  0  0  0  0  0  0  0  0  0  0  0
    4.9667   -3.3250    0.0000 C   0  0  0  0  0  0  0  0  0  0  0  0
    5.6792   -2.0833    0.0000 C   0  0  0  0  0  0  0  0  0  0  0  0
    4.9667   -2.5000    0.0000 C   0  0  0  0  0  0  0  0  0  0  0  0
  2  4  1  0
  3  2  1  0
  4  1  2  0
  5  1  1  0
  6  3  2  0
  7  3  1  0
  8  1  1  0
  9  2  2  0
 10  8  2  0
 10  9  1  0
M  CHG  2   1   1   5  -1
M  END
>  <ID>  (1381) 


>  <MOLENAME>  (1381) 
OXINIACIC ACID

>  <therap>  (1381) 
antilipemic

>  <ref>  (1381) 
J Org Chem 19:1633 (1954)

>  <cas#>  (1381) 
2398-81-4

>  <source>  (1381) 
synthetic

>  <status>  (1381) 
INN

>  <tradename>  (1381) 
NOVACYL

>  <SMILES>  (1381) 
O=C(O)c1ccc[n+]([O-])c1

>  <standardized_failed>  (1381) 
False

$$$$

     RDKit          2D

 11  9  0  0  0  0  0  0  0  0999 V2000
    4.6542   -1.1250    0.0000 N   0  0  0  0  0  0  0  0  0  0  0  0
    6.4542   -0.0292    0.0000 Cl  0  0  0  0  0  0  0  0  0  0  0  0
    2.5167   -1.5375    0.0000 Cl  0  0  0  0  0  0  0  0  0  0  0  0
    3.9417    0.9250    0.0000 Cl  0  0  0  0  0  0  0  0  0  0  0  0
    6.4542   -2.3417    0.0000 Cl  0  0  0  0  0  0  0  0  0  0  0  0
    3.9417   -1.5375    0.0000 C   0  0  0  0  0  0  0  0  0  0  0  0
    5.4500   -1.3375    0.0000 C   0  0  0  0  0  0  0  0  0  0  0  0
    4.6542   -0.3042    0.0000 C   0  0  0  0  0  0  0  0  0  0  0  0
    3.9417    0.1083    0.0000 C   0  0  0  0  0  0  0  0  0  0  0  0
    5.6625   -2.1292    0.0000 C   0  0  0  0  0  0  0  0  0  0  0  0
    3.2292   -1.1250    0.0000 C   0  0  0  0  0  0  0  0  0  0  0  0
  3 11  1  0
  4  9  1  0
  5 10  1  0
  6  1  1  0
  7  1  1  0
  8  1  1  0
  9  8  1  0
 10  7  1  0
 11  6  1  0
M  END
>  <ID>  (1382) 


>  <MOLENAME>  (1382) 
TRICHLORMETHINE HYDROCHLORIDE

>  <therap>  (1382) 
antineoplastic, cytotoxic

>  <ref>  (1382) 
J Am Med Assoc 132:126 (1946); IARC Monographs 50:143 (1990)

>  <cas#>  (1382) 
555-77-1

>  <source>  (1382) 
synthetic

>  <status>  (1382) 
INN, BAN

>  <tradename>  (1382) 
TRIMUSTINE

>  <SMILES>  (1382) 
ClCCN(CCCl)CCCl

>  <standardized_failed>  (1382) 
False

$$$$

     RDKit          2D

 18 20  0  0  0  0  0  0  0  0999 V2000
    4.1042   -1.5417    0.0000 C   0  0  0  0  0  0  0  0  0  0  0  0
    4.1042   -0.2042    0.0000 C   0  0  0  0  0  0  0  0  0  0  0  0
    4.5917   -0.8792    0.0000 C   0  0  0  0  0  0  0  0  0  0  0  0
    3.3250   -1.2917    0.0000 C   0  0  0  0  0  0  0  0  0  0  0  0
    3.3250   -0.4667    0.0000 C   0  0  0  0  0  0  0  0  0  0  0  0
    5.4167   -0.8792    0.0000 C   0  0  0  0  0  0  0  0  0  0  0  0
    4.3625    0.5750    0.0000 O   0  0  0  0  0  0  0  0  0  0  0  0
    4.3667   -2.3292    0.0000 O   0  0  0  0  0  0  0  0  0  0  0  0
    5.8292   -1.5917    0.0000 C   0  0  0  0  0  0  0  0  0  0  0  0
    5.8250   -0.1667    0.0000 C   0  0  0  0  0  0  0  0  0  0  0  0
    7.0667   -0.8792    0.0000 C   0  0  0  0  0  0  0  0  0  0  0  0
    6.6500   -0.1583    0.0000 C   0  0  0  0  0  0  0  0  0  0  0  0
    6.6542   -1.5917    0.0000 C   0  0  0  0  0  0  0  0  0  0  0  0
    7.8917   -0.8792    0.0000 Cl  0  0  0  0  0  0  0  0  0  0  0  0
    2.6042   -1.7042    0.0000 C   0  0  0  0  0  0  0  0  0  0  0  0
    2.6042   -0.0542    0.0000 C   0  0  0  0  0  0  0  0  0  0  0  0
    1.8917   -0.4667    0.0000 C   0  0  0  0  0  0  0  0  0  0  0  0
    1.8917   -1.2917    0.0000 C   0  0  0  0  0  0  0  0  0  0  0  0
  2  3  1  0
  3  1  1  0
  4  1  1  0
  5  4  2  0
  6  3  1  0
  7  2  2  0
  8  1  2  0
  9  6  2  0
 10  6  1  0
 11 12  1  0
 12 10  2  0
 13  9  1  0
 14 11  1  0
 15  4  1  0
 16  5  1  0
 17 18  1  0
 18 15  2  0
  2  5  1  0
 16 17  2  0
 13 11  2  0
M  END
>  <ID>  (1383) 


>  <MOLENAME>  (1383) 
CHLORINDIONE

>  <therap>  (1383) 
antcoagulant, Vitamine K antagonist

>  <ref>  (1383) 
J. Med. Chem. (1968), 11(2), 342-7; J. Org. Chem. (1960), 25, 1860-5. ; Pharmazie (1958), 13, 619-22.

>  <cas#>  (1383) 
1146-99-2

>  <source>  (1383) 
synthetic; G25766

>  <status>  (1383) 
INN, BAN

>  <tradename>  (1383) 
nan

>  <SMILES>  (1383) 
O=C1c2c(cccc2)C(=O)C1c1ccc(Cl)cc1

>  <standardized_failed>  (1383) 
False

$$$$

     RDKit          2D

 21 23  0  0  0  0  0  0  0  0999 V2000
    3.6167   -1.9500    0.0000 C   0  0  0  0  0  0  0  0  0  0  0  0
    3.6167   -2.7000    0.0000 C   0  0  0  0  0  0  0  0  0  0  0  0
    2.9667   -1.5750    0.0000 O   0  0  0  0  0  0  0  0  0  0  0  0
    2.3167   -1.9500    0.0000 C   0  0  0  0  0  0  0  0  0  0  0  0
    2.9667   -3.0750    0.0000 C   0  0  0  0  0  0  0  0  0  0  0  0
    2.3167   -2.7000    0.0000 C   0  0  0  0  0  0  0  0  0  0  0  0
    4.2667   -1.5750    0.0000 C   0  0  0  0  0  0  0  0  0  0  0  0
    1.6750   -1.5750    0.0000 C   0  0  0  0  0  0  0  0  0  0  0  0
    1.6750   -3.0750    0.0000 C   0  0  0  0  0  0  0  0  0  0  0  0
    2.9667   -3.8250    0.0000 O   0  0  0  0  0  0  0  0  0  0  0  0
    4.2667   -0.8250    0.0000 C   0  0  0  0  0  0  0  0  0  0  0  0
    1.0250   -1.9500    0.0000 C   0  0  0  0  0  0  0  0  0  0  0  0
    1.0250   -2.7000    0.0000 C   0  0  0  0  0  0  0  0  0  0  0  0
    3.6125   -0.4417    0.0000 O   0  0  0  0  0  0  0  0  0  0  0  0
    4.9125   -1.9500    0.0000 C   0  0  0  0  0  0  0  0  0  0  0  0
    0.3667   -1.5667    0.0000 O   0  0  0  0  0  0  0  0  0  0  0  0
    4.9125   -0.4500    0.0000 C   0  0  0  0  0  0  0  0  0  0  0  0
    3.6167    0.3125    0.0000 C   0  0  0  0  0  0  0  0  0  0  0  0
    0.3667   -0.8167    0.0000 C   0  0  0  0  0  0  0  0  0  0  0  0
    5.5625   -1.5750    0.0000 C   0  0  0  0  0  0  0  0  0  0  0  0
    5.5625   -0.8250    0.0000 C   0  0  0  0  0  0  0  0  0  0  0  0
  2  1  2  0
  3  1  1  0
  4  3  1  0
  5  2  1  0
  6  4  2  0
  7  1  1  0
  8  4  1  0
  9  6  1  0
 10  5  2  0
 11  7  2  0
 12  8  2  0
 13 12  1  0
 14 11  1  0
 15  7  1  0
 16 12  1  0
 17 11  1  0
 18 14  1  0
 19 16  1  0
 20 15  2  0
 21 20  1  0
  6  5  1  0
 21 17  2  0
  9 13  2  0
M  END
>  <ID>  (1384) 


>  <MOLENAME>  (1384) 
7.2'-DIMETHOXYFLAVONE

>  <therap>  (1384) 
nan

>  <ref>  (1384) 
nan

>  <cas#>  (1384) 
nan

>  <source>  (1384) 
Citrus spp

>  <status>  (1384) 
undetermined activity

>  <tradename>  (1384) 
nan

>  <SMILES>  (1384) 
COc1cc2c(cc1)c(=O)cc(-c1c(OC)cccc1)o2

>  <standardized_failed>  (1384) 
False

$$$$

     RDKit          2D

 13 13  0  0  0  0  0  0  0  0999 V2000
    6.4417   -6.7375    0.0000 C   0  0  0  0  0  0  0  0  0  0  0  0
    7.1625   -7.1500    0.0000 C   0  0  0  0  0  0  0  0  0  0  0  0
    7.1625   -7.9792    0.0000 N   0  0  0  0  0  0  0  0  0  0  0  0
    5.7250   -7.1542    0.0000 C   0  0  0  0  0  0  0  0  0  0  0  0
    6.4417   -5.9042    0.0000 O   0  0  0  0  0  0  0  0  0  0  0  0
    7.8750   -6.7375    0.0000 C   0  0  0  0  0  0  0  0  0  0  0  0
    6.4500   -8.3917    0.0000 C   0  0  0  0  0  0  0  0  0  0  0  0
    7.8792   -8.3917    0.0000 C   0  0  0  0  0  0  0  0  0  0  0  0
    5.0125   -6.7417    0.0000 C   0  0  0  0  0  0  0  0  0  0  0  0
    5.7250   -7.9792    0.0000 C   0  0  0  0  0  0  0  0  0  0  0  0
    4.2917   -7.1542    0.0000 C   0  0  0  0  0  0  0  0  0  0  0  0
    5.0125   -8.3917    0.0000 C   0  0  0  0  0  0  0  0  0  0  0  0
    4.2917   -7.9792    0.0000 C   0  0  0  0  0  0  0  0  0  0  0  0
  2  1  1  0
  3  2  1  0
  4  1  1  0
  1  5  1  1
  2  6  1  6
  7  3  1  0
  8  3  1  0
  9  4  2  0
 10  4  1  0
 11  9  1  0
 12 10  2  0
 13 12  1  0
 13 11  2  0
M  END
>  <ID>  (1385) 


>  <MOLENAME>  (1385) 
N-METHYL (-)EPHEDRINE [1R.2S]

>  <therap>  (1385) 
adrenergic agonist, analeptic

>  <ref>  (1385) 
J Pharmacol Exp Ther 148:158 (1965); 322:214 (2007)

>  <cas#>  (1385) 
552-79-4

>  <source>  (1385) 
synthetic

>  <status>  (1385) 
BAN

>  <tradename>  (1385) 
nan

>  <SMILES>  (1385) 
C[C@@H]([C@H](O)c1ccccc1)N(C)C

>  <standardized_failed>  (1385) 
False

$$$$

     RDKit          2D

 24 26  0  0  0  0  0  0  0  0999 V2000
    2.3417    0.9458    0.0000 C   0  0  0  0  0  0  0  0  0  0  0  0
    2.3417    0.1208    0.0000 C   0  0  0  0  0  0  0  0  0  0  0  0
    0.9167    0.9333    0.0000 C   0  0  0  0  0  0  0  0  0  0  0  0
    1.6292    1.3500    0.0000 O   0  0  0  0  0  0  0  0  0  0  0  0
    1.6292   -0.2917    0.0000 C   0  0  0  0  0  0  0  0  0  0  0  0
    0.9167    0.1083    0.0000 C   0  0  0  0  0  0  0  0  0  0  0  0
    0.2042    1.3458    0.0000 C   0  0  0  0  0  0  0  0  0  0  0  0
    0.2125   -0.3000    0.0000 C   0  0  0  0  0  0  0  0  0  0  0  0
   -1.9500    2.5583    0.0000 C   0  0  0  0  0  0  0  0  0  0  0  0
    3.0542    1.3583    0.0000 C   0  0  0  0  0  0  0  0  0  0  0  0
    1.6375   -1.1167    0.0000 O   0  0  0  0  0  0  0  0  0  0  0  0
   -1.9583    3.3833    0.0000 O   0  0  0  0  0  0  0  0  0  0  0  0
   -0.5083    0.9208    0.0000 C   0  0  0  0  0  0  0  0  0  0  0  0
   -1.2250    1.3333    0.0000 O   0  0  0  0  0  0  0  0  0  0  0  0
   -1.2333    2.1583    0.0000 C   0  0  0  0  0  0  0  0  0  0  0  0
   -0.5000    0.1083    0.0000 C   0  0  0  0  0  0  0  0  0  0  0  0
   -2.6625    2.1458    0.0000 O   0  0  0  0  0  0  0  0  0  0  0  0
    3.7667    0.9458    0.0000 C   0  0  0  0  0  0  0  0  0  0  0  0
    3.0500    2.1750    0.0000 C   0  0  0  0  0  0  0  0  0  0  0  0
   -3.3833    2.5458    0.0000 C   0  0  0  0  0  0  0  0  0  0  0  0
   -4.0958    2.1250    0.0000 C   0  0  0  0  0  0  0  0  0  0  0  0
    3.7625    2.5958    0.0000 C   0  0  0  0  0  0  0  0  0  0  0  0
    4.4792    1.3583    0.0000 C   0  0  0  0  0  0  0  0  0  0  0  0
    4.4792    2.1833    0.0000 C   0  0  0  0  0  0  0  0  0  0  0  0
  2  1  2  0
  3  4  1  0
  4  1  1  0
  5  2  1  0
  6  3  2  0
  7  3  1  0
  8  6  1  0
  9 15  1  0
 10  1  1  0
 11  5  2  0
 12  9  2  0
 13  7  2  0
 14 13  1  0
 15 14  1  0
 16 13  1  0
 17  9  1  0
 18 10  2  0
 19 10  1  0
 20 17  1  0
 21 20  1  0
 22 19  2  0
 23 18  1  0
 24 22  1  0
  6  5  1  0
 23 24  2  0
 16  8  2  0
M  END
>  <ID>  (1386) 


>  <MOLENAME>  (1386) 
EFLOXATE

>  <therap>  (1386) 
coronary vasodilator

>  <ref>  (1386) 
Clin Terap 10:670 (1956); Br Heart J 21:315 (1959); J Fac Pharm Ankara 11:160 (1981)

>  <cas#>  (1386) 
119-41-5

>  <source>  (1386) 
synthetic

>  <status>  (1386) 
INN, JAN

>  <tradename>  (1386) 
RECORDIL

>  <SMILES>  (1386) 
CCOC(=O)COc1cc2c(cc1)c(=O)cc(-c1ccccc1)o2

>  <standardized_failed>  (1386) 
False

$$$$

     RDKit          2D

 13 12  0  0  0  0  0  0  0  0999 V2000
    3.1042   -1.0292    0.0000 C   0  0  0  0  0  0  0  0  0  0  0  0
    3.5167   -1.7417    0.0000 N   0  0  0  0  0  0  0  0  0  0  0  0
    4.3417   -1.7417    0.0000 C   0  0  0  0  0  0  0  0  0  0  0  0
    2.2875   -1.0333    0.0000 N   0  0  0  0  0  0  0  0  0  0  0  0
    3.5167   -0.3167    0.0000 N   0  0  0  0  0  0  0  0  0  0  0  0
    4.7500   -1.0292    0.0000 N   0  0  0  0  0  0  0  0  0  0  0  0
    0.6375   -1.0333    0.0000 O   0  0  0  0  0  0  0  0  0  0  0  0
    4.7542   -2.4542    0.0000 N   0  0  0  0  0  0  0  0  0  0  0  0
    6.3000   -0.2417    0.0000 Cl  0  0  0  0  0  0  0  0  0  0  0  0
    1.8792   -1.7417    0.0000 C   0  0  0  0  0  0  0  0  0  0  0  0
    1.8792   -0.3167    0.0000 C   0  0  0  0  0  0  0  0  0  0  0  0
    1.0542   -1.7417    0.0000 C   0  0  0  0  0  0  0  0  0  0  0  0
    1.0542   -0.3167    0.0000 C   0  0  0  0  0  0  0  0  0  0  0  0
  2  1  1  0
  3  2  1  0
  4  1  1  0
  5  1  2  0
  6  3  2  0
  7 13  1  0
  8  3  1  0
 10  4  1  0
 11  4  1  0
 12 10  1  0
 13 11  1  0
  7 12  1  0
M  END
>  <ID>  (1387) 


>  <MOLENAME>  (1387) 
MOROXYDINE HYDROCHLORIDE

>  <therap>  (1387) 
antiviral

>  <ref>  (1387) 
Acta Derm Venereol Suppl (Stockh) 183:1 [1994]

>  <cas#>  (1387) 
3731-59-7

>  <source>  (1387) 
synthetic; SKF-8898A, ABOB

>  <status>  (1387) 
INN, BAN

>  <tradename>  (1387) 
nan

>  <SMILES>  (1387) 
N=C(N)NC(=N)N1CCOCC1

>  <standardized_failed>  (1387) 
False

$$$$

     RDKit          2D

 26 27  0  0  0  0  0  0  0  0999 V2000
    5.2167   -2.8792    0.0000 N   0  0  0  0  0  0  0  0  0  0  0  0
    4.5750   -2.5042    0.0000 C   0  0  0  0  0  0  0  0  0  0  0  0
    5.8667   -2.5042    0.0000 C   0  0  0  0  0  0  0  0  0  0  0  0
    3.9167   -2.8917    0.0000 C   0  0  0  0  0  0  0  0  0  0  0  0
    6.5250   -2.8792    0.0000 C   0  0  0  0  0  0  0  0  0  0  0  0
    3.2625   -2.5167    0.0000 C   0  0  0  0  0  0  0  0  0  0  0  0
    6.5250   -3.6417    0.0000 C   0  0  0  0  0  0  0  0  0  0  0  0
    2.6167   -2.8917    0.0000 O   0  0  0  0  0  0  0  0  0  0  0  0
    3.2542   -1.7667    0.0000 C   0  0  0  0  0  0  0  0  0  0  0  0
    7.1750   -4.0042    0.0000 C   0  0  0  0  0  0  0  0  0  0  0  0
    5.2167   -3.6292    0.0000 C   0  0  0  0  0  0  0  0  0  0  0  0
    5.8750   -4.0042    0.0000 O   0  0  0  0  0  0  0  0  0  0  0  0
    3.7375   -4.4375    0.0000 Cl  0  0  0  0  0  0  0  0  0  0  0  0
    4.5750   -1.7542    0.0000 C   0  0  0  0  0  0  0  0  0  0  0  0
    5.8667   -1.7542    0.0000 C   0  0  0  0  0  0  0  0  0  0  0  0
    5.2167   -1.3792    0.0000 C   0  0  0  0  0  0  0  0  0  0  0  0
    2.6042   -1.3917    0.0000 C   0  0  0  0  0  0  0  0  0  0  0  0
    3.9000   -1.3917    0.0000 C   0  0  0  0  0  0  0  0  0  0  0  0
    7.8167   -3.6292    0.0000 C   0  0  0  0  0  0  0  0  0  0  0  0
    7.1750   -4.7542    0.0000 C   0  0  0  0  0  0  0  0  0  0  0  0
    7.8167   -5.1292    0.0000 C   0  0  0  0  0  0  0  0  0  0  0  0
    8.4667   -4.0042    0.0000 C   0  0  0  0  0  0  0  0  0  0  0  0
    3.9000   -0.6417    0.0000 C   0  0  0  0  0  0  0  0  0  0  0  0
    2.6042   -0.6417    0.0000 C   0  0  0  0  0  0  0  0  0  0  0  0
    8.4667   -4.7542    0.0000 C   0  0  0  0  0  0  0  0  0  0  0  0
    3.2542   -0.2667    0.0000 C   0  0  0  0  0  0  0  0  0  0  0  0
  2  1  1  0
  3  1  1  0
  4  2  1  0
  5  3  1  0
  6  4  1  0
  7  5  1  0
  8  6  2  0
  9  6  1  0
 10  7  1  0
 11  1  1  0
 12  7  1  0
 14  2  1  0
 15  3  1  0
 16 15  1  0
 17  9  2  0
 18  9  1  0
 19 10  2  0
 20 10  1  0
 21 20  2  0
 22 19  1  0
 23 18  2  0
 24 17  1  0
 25 22  2  0
 26 24  2  0
 16 14  1  0
 21 25  1  0
 23 26  1  0
M  END
>  <ID>  (1388) 


>  <MOLENAME>  (1388) 
LOBELINE HYDROCHLORIDE

>  <therap>  (1388) 
antiasthmatic, respiratory stimulant

>  <ref>  (1388) 
J Pharmacol Exp Ther 282:410 (1997); Biochem Pharmacol 63:89 (2002)

>  <cas#>  (1388) 
90-69-7

>  <source>  (1388) 
Lobelia spp

>  <status>  (1388) 
INN, BAN, JAN

>  <tradename>  (1388) 
nan

>  <SMILES>  (1388) 
CN1C(CC(=O)c2ccccc2)CCCC1CC(O)c1ccccc1

>  <standardized_failed>  (1388) 
False

$$$$

     RDKit          2D

 39 43  0  0  0  0  0  0  0  0999 V2000
    0.5542   -0.7417    0.0000 N   0  0  0  0  0  0  0  0  0  0  0  0
    1.2667   -1.9875    0.0000 C   0  0  0  0  0  0  0  0  0  0  0  0
    1.2667   -1.1625    0.0000 C   0  0  0  0  0  0  0  0  0  0  0  0
    5.3917    1.0375    0.0000 S   0  0  0  0  0  0  0  0  0  0  0  0
    6.5917   -1.7375    0.0000 S   0  0  0  0  0  0  0  0  0  0  0  0
   -0.1583   -1.1625    0.0000 C   0  0  0  0  0  0  0  0  0  0  0  0
   -0.1583   -1.9875    0.0000 C   0  0  0  0  0  0  0  0  0  0  0  0
    5.3917    0.3458    0.0000 C   0  0  0  0  0  0  0  0  0  0  0  0
    6.5917   -1.0375    0.0000 C   0  0  0  0  0  0  0  0  0  0  0  0
    5.9917   -0.6917    0.0000 C   0  0  0  0  0  0  0  0  0  0  0  0
    5.9917   -0.0000    0.0000 C   0  0  0  0  0  0  0  0  0  0  0  0
    1.9792   -0.7500    0.0000 C   0  0  0  0  0  0  0  0  0  0  0  0
    1.9792   -2.4000    0.0000 C   0  0  0  0  0  0  0  0  0  0  0  0
    2.6917   -1.9917    0.0000 N   0  0  0  0  0  0  0  0  0  0  0  0
    0.5542    0.0833    0.0000 C   0  0  0  0  0  0  0  0  0  0  0  0
    4.7417    1.0500    0.0000 O   0  0  0  0  0  0  0  0  0  0  0  0
    6.0792    1.0500    0.0000 O   0  0  0  0  0  0  0  0  0  0  0  0
    5.8917   -1.7625    0.0000 O   0  0  0  0  0  0  0  0  0  0  0  0
    7.2792   -1.7375    0.0000 O   0  0  0  0  0  0  0  0  0  0  0  0
    5.3792    1.7250    0.0000 O   0  0  0  0  0  0  0  0  0  0  0  0
    6.5917   -2.4250    0.0000 O   0  0  0  0  0  0  0  0  0  0  0  0
    2.6917   -1.1625    0.0000 C   0  0  0  0  0  0  0  0  0  0  0  0
    1.2667    0.4958    0.0000 C   0  0  0  0  0  0  0  0  0  0  0  0
   -0.8708   -0.7500    0.0000 C   0  0  0  0  0  0  0  0  0  0  0  0
   -0.8708   -2.4000    0.0000 C   0  0  0  0  0  0  0  0  0  0  0  0
    5.3917   -1.0417    0.0000 C   0  0  0  0  0  0  0  0  0  0  0  0
    6.5917    0.3500    0.0000 C   0  0  0  0  0  0  0  0  0  0  0  0
    7.1917   -0.6875    0.0000 C   0  0  0  0  0  0  0  0  0  0  0  0
    4.7917   -0.0042    0.0000 C   0  0  0  0  0  0  0  0  0  0  0  0
    3.4042   -2.4125    0.0000 C   0  0  0  0  0  0  0  0  0  0  0  0
    7.1917    0.0083    0.0000 C   0  0  0  0  0  0  0  0  0  0  0  0
    4.7917   -0.7000    0.0000 C   0  0  0  0  0  0  0  0  0  0  0  0
    1.2667    1.3125    0.0000 C   0  0  0  0  0  0  0  0  0  0  0  0
    1.9792    0.0750    0.0000 C   0  0  0  0  0  0  0  0  0  0  0  0
   -1.5833   -1.1625    0.0000 C   0  0  0  0  0  0  0  0  0  0  0  0
   -1.5833   -1.9875    0.0000 C   0  0  0  0  0  0  0  0  0  0  0  0
    1.9792    1.7250    0.0000 C   0  0  0  0  0  0  0  0  0  0  0  0
    2.6917    0.4875    0.0000 C   0  0  0  0  0  0  0  0  0  0  0  0
    2.6917    1.3125    0.0000 C   0  0  0  0  0  0  0  0  0  0  0  0
  2  3  2  0
  3  1  1  0
  5  9  1  0
  6  1  1  0
  7  6  2  0
  8  4  1  0
  9 10  1  0
 10 11  1  0
 11  8  2  0
 12  3  1  0
 13  2  1  0
 14 22  1  0
 15  1  1  0
 16  4  2  0
 17  4  2  0
 18  5  2  0
 19  5  2  0
 20  4  1  0
 21  5  1  0
 22 12  1  0
 23 15  1  0
 24  6  1  0
 25  7  1  0
 26 32  1  0
 27 11  1  0
 28 31  1  0
 29  8  1  0
 30 14  1  0
 31 27  2  0
 32 29  2  0
 33 23  2  0
 34 23  1  0
 35 24  2  0
 36 35  1  0
 37 33  1  0
 38 34  2  0
 39 38  1  0
  7  2  1  0
 36 25  2  0
 13 14  1  0
 37 39  2  0
 26 10  2  0
  9 28  2  0
M  END
>  <ID>  (1389) 


>  <MOLENAME>  (1389) 
MEBHYDROLIN NAPHTHALENESULFONATE

>  <therap>  (1389) 
H1 antihistamine

>  <ref>  (1389) 
Farmakol Toxsikol 20(6):46 (1957)

>  <cas#>  (1389) 
524-81-2

>  <source>  (1389) 
synthetic

>  <status>  (1389) 
INN, BAN, JAN

>  <tradename>  (1389) 
DIAZOLINE

>  <SMILES>  (1389) 
CN1CCc2c(C1)c1c(cccc1)n2Cc1ccccc1

>  <standardized_failed>  (1389) 
False

$$$$

     RDKit          2D

 18 18  0  0  0  0  0  0  0  0999 V2000
    6.5042   -6.5875    0.0000 C   0  0  0  0  0  0  0  0  0  0  0  0
    7.2292   -4.5250    0.0000 C   0  0  0  0  0  0  0  0  0  0  0  0
    7.2167   -7.0042    0.0000 N   0  0  0  0  0  0  0  0  0  0  0  0
    6.5125   -5.7625    0.0000 N   0  0  0  0  0  0  0  0  0  0  0  0
    7.2167   -7.8292    0.0000 N   0  0  0  0  0  0  0  0  0  0  0  0
    7.2292   -5.3500    0.0000 N   0  0  0  0  0  0  0  0  0  0  0  0
    5.7917   -7.0000    0.0000 C   0  0  0  0  0  0  0  0  0  0  0  0
    7.9417   -4.1125    0.0000 O   0  0  0  0  0  0  0  0  0  0  0  0
    5.7917   -7.8250    0.0000 C   0  0  0  0  0  0  0  0  0  0  0  0
    6.5167   -4.1125    0.0000 O   0  0  0  0  0  0  0  0  0  0  0  0
    8.3542   -6.5250    0.0000 Cl  0  0  0  0  0  0  0  0  0  0  0  0
    6.5042   -8.2375    0.0000 C   0  0  0  0  0  0  0  0  0  0  0  0
    5.0792   -6.5875    0.0000 C   0  0  0  0  0  0  0  0  0  0  0  0
    5.0792   -8.2375    0.0000 C   0  0  0  0  0  0  0  0  0  0  0  0
    6.5167   -3.2875    0.0000 C   0  0  0  0  0  0  0  0  0  0  0  0
    5.8042   -2.8792    0.0000 C   0  0  0  0  0  0  0  0  0  0  0  0
    4.3750   -7.0000    0.0000 C   0  0  0  0  0  0  0  0  0  0  0  0
    4.3750   -7.8250    0.0000 C   0  0  0  0  0  0  0  0  0  0  0  0
  2  6  1  0
  3  1  2  0
  4  1  1  0
  5  3  1  0
  6  4  1  0
  7  1  1  0
  8  2  2  0
  9  7  2  0
 10  2  1  0
 12  9  1  0
 13  7  1  0
 14  9  1  0
 15 10  1  0
 16 15  1  0
 17 13  2  0
 18 17  1  0
  5 12  2  0
 14 18  2  0
M  END
>  <ID>  (1390) 


>  <MOLENAME>  (1390) 
TODRALAZINE HYDROCHLORIDE

>  <therap>  (1390) 
antihypertensive, peripheral vasodilator

>  <ref>  (1390) 
Arzneim Forsch 27:2163 (1977); J Pharmacol Pharm 31:127 (1979); Farmaco Ed Sci 34:299 (1979)

>  <cas#>  (1390) 
14679-73-3

>  <source>  (1390) 
synthetic; CEPH, BT-621

>  <status>  (1390) 
INN, BAN, JAN

>  <tradename>  (1390) 
BINAZIN

>  <SMILES>  (1390) 
CCOC(=O)NNc1nncc2c1cccc2

>  <standardized_failed>  (1390) 
False

$$$$

     RDKit          2D

 29 30  0  0  0  0  0  0  0  0999 V2000
    9.8167   -1.0625    0.0000 C   0  0  0  0  0  0  0  0  0  0  0  0
    8.9917   -1.0667    0.0000 N   0  0  0  0  0  0  0  0  0  0  0  0
   10.2292   -1.7792    0.0000 N   0  0  0  0  0  0  0  0  0  0  0  0
    8.5917   -1.7875    0.0000 C   0  0  0  0  0  0  0  0  0  0  0  0
    9.8167   -2.5000    0.0000 C   0  0  0  0  0  0  0  0  0  0  0  0
    8.9917   -2.5000    0.0000 C   0  0  0  0  0  0  0  0  0  0  0  0
    3.6542   -3.2125    0.0000 N   0  0  0  0  0  0  0  0  0  0  0  0
    2.8292   -3.2125    0.0000 C   0  0  0  0  0  0  0  0  0  0  0  0
    5.3042   -3.2125    0.0000 N   0  0  0  0  0  0  0  0  0  0  0  0
   10.2167   -0.3500    0.0000 O   0  0  0  0  0  0  0  0  0  0  0  0
   10.2417   -3.2125    0.0000 O   0  0  0  0  0  0  0  0  0  0  0  0
    7.7667   -1.7875    0.0000 N   0  0  0  0  0  0  0  0  0  0  0  0
    4.0667   -2.4917    0.0000 C   0  0  0  0  0  0  0  0  0  0  0  0
    4.0667   -3.9250    0.0000 C   0  0  0  0  0  0  0  0  0  0  0  0
    2.4167   -2.5000    0.0000 C   0  0  0  0  0  0  0  0  0  0  0  0
    8.5792   -0.3625    0.0000 C   0  0  0  0  0  0  0  0  0  0  0  0
   11.0542   -1.7750    0.0000 C   0  0  0  0  0  0  0  0  0  0  0  0
    4.8917   -3.9250    0.0000 C   0  0  0  0  0  0  0  0  0  0  0  0
    4.8917   -2.5000    0.0000 C   0  0  0  0  0  0  0  0  0  0  0  0
    7.9917   -4.1792    0.0000 Cl  0  0  0  0  0  0  0  0  0  0  0  0
    2.8292   -1.7875    0.0000 O   0  0  0  0  0  0  0  0  0  0  0  0
    6.1292   -3.2125    0.0000 C   0  0  0  0  0  0  0  0  0  0  0  0
    6.5292   -2.5000    0.0000 C   0  0  0  0  0  0  0  0  0  0  0  0
    2.4167   -3.9250    0.0000 C   0  0  0  0  0  0  0  0  0  0  0  0
    7.3542   -2.5000    0.0000 C   0  0  0  0  0  0  0  0  0  0  0  0
    1.5917   -2.5000    0.0000 C   0  0  0  0  0  0  0  0  0  0  0  0
    3.6542   -1.7792    0.0000 C   0  0  0  0  0  0  0  0  0  0  0  0
    1.5917   -3.9250    0.0000 C   0  0  0  0  0  0  0  0  0  0  0  0
    1.1917   -3.2125    0.0000 C   0  0  0  0  0  0  0  0  0  0  0  0
  2  1  1  0
  3  1  1  0
  4  2  1  0
  5  3  1  0
  6  5  1  0
  7 13  1  0
  8  7  1  0
  9 22  1  0
 10  1  2  0
 11  5  2  0
 12  4  1  0
 13 19  1  0
 14 18  1  0
 15  8  2  0
 16  2  1  0
 17  3  1  0
 18  9  1  0
 19  9  1  0
 21 15  1  0
 22 23  1  0
 23 25  1  0
 24  8  1  0
 25 12  1  0
 26 15  1  0
 27 21  1  0
 28 24  2  0
 29 28  1  0
  6  4  2  0
 14  7  1  0
 29 26  2  0
M  END
>  <ID>  (1391) 


>  <MOLENAME>  (1391) 
URAPIDIL HYDROCHLORIDE

>  <therap>  (1391) 
antihypertensive

>  <ref>  (1391) 
Eur J Pharmacol 59:1 (1979); Arzneim Forsch 31:849 (1981); Drugs 35 Suppl 6:147 (1988)

>  <cas#>  (1391) 
34661-75-1

>  <source>  (1391) 
synthetic

>  <status>  (1391) 
INN, BAN, JAN

>  <tradename>  (1391) 
EBRANTIL

>  <SMILES>  (1391) 
COc1c(N2CCN(CCCNc3cc(=O)n(C)c(=O)n3C)CC2)cccc1

>  <standardized_failed>  (1391) 
False

$$$$

     RDKit          2D

 35 37  0  0  0  0  0  0  0  0999 V2000
    2.2417   -4.3625    0.0000 C   0  0  0  0  0  0  0  0  0  0  0  0
    4.3917   -3.1167    0.0000 C   0  0  0  0  0  0  0  0  0  0  0  0
    2.2417   -5.1917    0.0000 C   0  0  0  0  0  0  0  0  0  0  0  0
    5.1750   -2.8667    0.0000 C   0  0  0  0  0  0  0  0  0  0  0  0
    2.9542   -3.9500    0.0000 C   0  0  0  0  0  0  0  0  0  0  0  0
    3.6750   -4.3625    0.0000 C   0  0  0  0  0  0  0  0  0  0  0  0
    4.3917   -3.9500    0.0000 C   0  0  0  0  0  0  0  0  0  0  0  0
    1.5292   -3.9500    0.0000 C   0  0  0  0  0  0  0  0  0  0  0  0
    3.6667   -2.7042    0.0000 C   0  0  0  0  0  0  0  0  0  0  0  0
    2.9542   -3.1167    0.0000 C   0  0  0  0  0  0  0  0  0  0  0  0
    3.6750   -5.1917    0.0000 C   0  0  0  0  0  0  0  0  0  0  0  0
    1.5292   -5.6042    0.0000 C   0  0  0  0  0  0  0  0  0  0  0  0
    2.9542   -5.6042    0.0000 C   0  0  0  0  0  0  0  0  0  0  0  0
    5.5125   -2.1125    0.0000 C   0  0  0  0  0  0  0  0  0  0  0  0
    5.6542   -3.5292    0.0000 C   0  0  0  0  0  0  0  0  0  0  0  0
    5.1750   -4.2042    0.0000 C   0  0  0  0  0  0  0  0  0  0  0  0
    0.8167   -4.3625    0.0000 C   0  0  0  0  0  0  0  0  0  0  0  0
    0.8167   -5.1917    0.0000 C   0  0  0  0  0  0  0  0  0  0  0  0
    7.6667    0.9958    0.0000 C   0  0  0  0  0  0  0  0  0  0  0  0
    6.1792   -0.6000    0.0000 C   0  0  0  0  0  0  0  0  0  0  0  0
    5.0250   -1.4417    0.0000 C   0  0  0  0  0  0  0  0  0  0  0  0
    8.4875    1.0833    0.0000 O   0  0  0  0  0  0  0  0  0  0  0  0
    6.3292   -2.0250    0.0000 O   0  0  0  0  0  0  0  0  0  0  0  0
    5.3542   -0.6875    0.0000 O   0  0  0  0  0  0  0  0  0  0  0  0
    7.1792    1.6625    0.0000 O   0  0  0  0  0  0  0  0  0  0  0  0
    6.6625   -1.2667    0.0000 O   0  0  0  0  0  0  0  0  0  0  0  0
    0.0917   -5.6125    0.0000 O   0  0  0  0  0  0  0  0  0  0  0  0
    6.0667   -2.9167    0.0000 O   0  0  0  0  0  0  0  0  0  0  0  0
    2.2417   -3.5292    0.0000 C   0  0  0  0  0  0  0  0  0  0  0  0
    4.3792   -2.2917    0.0000 C   0  0  0  0  0  0  0  0  0  0  0  0
    2.2375   -2.6917    0.0000 O   0  0  0  0  0  0  0  0  0  0  0  0
    7.3292    0.2458    0.0000 C   0  0  0  0  0  0  0  0  0  0  0  0
    6.5125    0.1583    0.0000 C   0  0  0  0  0  0  0  0  0  0  0  0
    8.6667    0.0958    0.0000 Na  0  0  0  0  0 15  0  0  0  0  0  0
    2.9542   -6.4292    0.0000 C   0  0  0  0  0  0  0  0  0  0  0  0
  2  9  1  0
  3  1  1  0
  4  2  1  0
  5  1  1  0
  6  5  1  0
  7  6  1  0
  8  1  1  0
  9 10  1  0
 10  5  1  0
 11  6  1  0
 12  3  2  0
 13  3  1  0
  4 14  1  0
 15 16  1  0
 16  7  1  0
 17  8  2  0
 18 17  1  0
 19 32  1  0
 20 24  1  0
 21 14  1  0
 22 19  1  0
 23 14  2  0
 24 21  1  0
 25 19  2  0
 26 20  2  0
 27 18  2  0
  4 28  1  6
  1 29  1  1
  2 30  1  1
 10 31  1  1
 32 33  1  0
 33 20  1  0
 13 35  1  6
 11 13  1  0
 12 18  1  0
  7  2  1  0
  4 15  1  0
M  CHG  2  22  -1  34   1
M  END
>  <ID>  (1392) 


>  <MOLENAME>  (1392) 
METHYLPREDNISOLONE SODIUM SUCCINATE

>  <therap>  (1392) 
glucocorticoid, antiinflammatory

>  <ref>  (1392) 
Clin. Immunol. Immunopath. (1978), 9(4), 482-90; Rheumatology (2000), 39(10), 1067-73; Nature (1965), 208(5012), 755-7

>  <cas#>  (1392) 
2375-03-3

>  <source>  (1392) 
semisynthetic

>  <status>  (1392) 
USP, JAN

>  <tradename>  (1392) 
SOLU-MEDROL

>  <SMILES>  (1392) 
C[C@H]1CC2C3CC[C@](O)(C(=O)COC(=O)CCC(=O)O)[C@@]3(C)C[C@H](O)C2[C@@]2(C)C=CC(=O)C=C12

>  <standardized_failed>  (1392) 
False

$$$$

     RDKit          2D

 16 13  0  0  0  0  0  0  0  0999 V2000
    4.7792   -0.3750    0.0000 N   0  0  0  0  0  0  0  0  0  0  0  0
    0.5042   -1.1917    0.0000 N   0  0  0  0  0  0  0  0  0  0  0  0
    1.4917   -2.4292    0.0000 Br  0  0  0  0  0  0  0  0  0  0  0  0
    5.5542   -1.5542    0.0000 Br  0  0  0  0  0  0  0  0  0  0  0  0
    0.5042   -0.3750    0.0000 C   0  0  0  0  0  0  0  0  0  0  0  0
    4.0667    0.0375    0.0000 C   0  0  0  0  0  0  0  0  0  0  0  0
   -0.2083   -1.6042    0.0000 C   0  0  0  0  0  0  0  0  0  0  0  0
    4.7792   -1.2000    0.0000 C   0  0  0  0  0  0  0  0  0  0  0  0
    0.5042   -2.0167    0.0000 C   0  0  0  0  0  0  0  0  0  0  0  0
    5.4917   -0.7875    0.0000 C   0  0  0  0  0  0  0  0  0  0  0  0
    5.4917    0.0375    0.0000 C   0  0  0  0  0  0  0  0  0  0  0  0
    1.2167   -1.6042    0.0000 C   0  0  0  0  0  0  0  0  0  0  0  0
    1.2167    0.0375    0.0000 C   0  0  0  0  0  0  0  0  0  0  0  0
    3.3542   -0.3750    0.0000 C   0  0  0  0  0  0  0  0  0  0  0  0
    2.6417    0.0375    0.0000 C   0  0  0  0  0  0  0  0  0  0  0  0
    1.9292   -0.3750    0.0000 C   0  0  0  0  0  0  0  0  0  0  0  0
  2  5  1  0
  5 13  1  0
  6  1  1  0
  7  2  1  0
  8  1  1  0
  9  2  1  0
 10  1  1  0
 11  1  1  0
 12  2  1  0
 13 16  1  0
 14  6  1  0
 15 14  1  0
 16 15  1  0
M  CHG  4   1   1   2   1   3  -1   4  -1
M  END
>  <ID>  (1393) 


>  <MOLENAME>  (1393) 
HEXAMETHONIUM BROMIDE

>  <therap>  (1393) 
antihypertensive, ganglionic blocker

>  <ref>  (1393) 
Eur. J. Pharmacol. (1970), 12(3), 342-7; Br. J. Pharmacol. Chemother. (1954), 9(2), 218-23; Circulation (1950), 2(6), 828-36

>  <cas#>  (1393) 
55-97-0, 60-26-4 [hexamethonium]

>  <source>  (1393) 
synthetic

>  <status>  (1393) 
INN, BAN, JAN

>  <tradename>  (1393) 
BISTRIUM BROMIDE

>  <SMILES>  (1393) 
C[N+](C)(C)CCCCCC[N+](C)(C)C

>  <standardized_failed>  (1393) 
False

$$$$

     RDKit          2D

 16 15  0  0  0  0  0  0  0  0999 V2000
    3.1292   -1.1542    0.0000 C   0  0  0  0  0  0  0  0  0  0  0  0
    2.7167   -0.4417    0.0000 C   0  0  0  0  0  0  0  0  0  0  0  0
    5.1875   -1.8667    0.0000 N   0  0  0  0  0  0  0  0  0  0  0  0
    3.9542   -1.1542    0.0000 C   0  0  0  0  0  0  0  0  0  0  0  0
    5.6000   -2.5792    0.0000 C   0  0  0  0  0  0  0  0  0  0  0  0
    4.3667   -1.8667    0.0000 C   0  0  0  0  0  0  0  0  0  0  0  0
    3.1292    0.2708    0.0000 Cl  0  0  0  0  0  0  0  0  0  0  0  0
    6.7917   -1.1875    0.0000 Cl  0  0  0  0  0  0  0  0  0  0  0  0
    4.3625   -0.4375    0.0000 O   0  0  0  0  0  0  0  0  0  0  0  0
    2.7167   -1.8667    0.0000 C   0  0  0  0  0  0  0  0  0  0  0  0
    1.8917   -0.4417    0.0000 C   0  0  0  0  0  0  0  0  0  0  0  0
    6.4167   -2.5792    0.0000 C   0  0  0  0  0  0  0  0  0  0  0  0
    5.1875   -3.2917    0.0000 C   0  0  0  0  0  0  0  0  0  0  0  0
    6.0042   -3.2917    0.0000 C   0  0  0  0  0  0  0  0  0  0  0  0
    1.8917   -1.8667    0.0000 C   0  0  0  0  0  0  0  0  0  0  0  0
    1.4875   -1.1542    0.0000 C   0  0  0  0  0  0  0  0  0  0  0  0
  2  1  2  0
  3  6  1  0
  4  1  1  0
  5  3  1  0
  6  4  1  0
  7  2  1  0
  9  4  1  0
 10  1  1  0
 11  2  1  0
 12  5  1  0
 13  5  1  0
 14  5  1  0
 15 10  2  0
 16 15  1  0
 11 16  2  0
M  END
>  <ID>  (1394) 


>  <MOLENAME>  (1394) 
TULOBUTEROL HYDROCHLORIDE

>  <therap>  (1394) 
bronchodilator, beta adrenergic agonist

>  <ref>  (1394) 
Oyo Yakuri 13:197, 317 (1977)[CA 88:83591 (1978)]

>  <cas#>  (1394) 
41570-61-0

>  <source>  (1394) 
synthetic

>  <status>  (1394) 
INN, BAN, JAN

>  <tradename>  (1394) 
HOKUNALIN

>  <SMILES>  (1394) 
CC(C)(C)NCC(O)c1c(Cl)cccc1

>  <standardized_failed>  (1394) 
False

$$$$

     RDKit          2D

 36 36  0  0  0  0  0  0  0  0999 V2000
   -0.0958   -2.4500    0.0000 C   0  0  0  0  0  0  0  0  0  0  0  0
    1.3292   -1.6167    0.0000 C   0  0  0  0  0  0  0  0  0  0  0  0
    4.1917   -1.6042    0.0000 C   0  0  0  0  0  0  0  0  0  0  0  0
    2.0417   -1.2042    0.0000 C   0  0  0  0  0  0  0  0  0  0  0  0
    0.6167   -2.8625    0.0000 C   0  0  0  0  0  0  0  0  0  0  0  0
   -0.0958   -1.6250    0.0000 C   0  0  0  0  0  0  0  0  0  0  0  0
    1.3292   -2.4500    0.0000 C   0  0  0  0  0  0  0  0  0  0  0  0
    0.6167   -1.2042    0.0000 C   0  0  0  0  0  0  0  0  0  0  0  0
    3.4750   -1.2000    0.0000 C   0  0  0  0  0  0  0  0  0  0  0  0
    2.7625   -1.6125    0.0000 O   0  0  0  0  0  0  0  0  0  0  0  0
    6.2167   -3.9000    0.0000 C   0  0  0  0  0  0  0  0  0  0  0  0
    6.5375   -2.6750    0.0000 C   0  0  0  0  0  0  0  0  0  0  0  0
    5.9667   -2.9375    0.0000 C   0  0  0  0  0  0  0  0  0  0  0  0
    5.8542   -3.5167    0.0000 C   0  0  0  0  0  0  0  0  0  0  0  0
    4.6542   -2.2167    0.0000 N   0  0  0  0  0  0  0  0  0  0  0  0
    2.0417   -0.3792    0.0000 O   0  0  0  0  0  0  0  0  0  0  0  0
    4.9042   -1.1917    0.0000 C   0  0  0  0  0  0  0  0  0  0  0  0
    6.5500   -2.0500    0.0000 O   0  0  0  0  0  0  0  0  0  0  0  0
    5.9500   -4.5167    0.0000 O   0  0  0  0  0  0  0  0  0  0  0  0
   -0.8125   -2.8625    0.0000 O   0  0  0  0  0  0  0  0  0  0  0  0
    0.6167   -3.6875    0.0000 O   0  0  0  0  0  0  0  0  0  0  0  0
   -0.8083   -1.2125    0.0000 O   0  0  0  0  0  0  0  0  0  0  0  0
    7.0917   -2.9542    0.0000 O   0  0  0  0  0  0  0  0  0  0  0  0
    6.8250   -3.9042    0.0000 O   0  0  0  0  0  0  0  0  0  0  0  0
    3.4417   -1.9542    0.0000 C   0  0  0  0  0  0  0  0  0  0  0  0
    4.3625   -2.9250    0.0000 C   0  0  0  0  0  0  0  0  0  0  0  0
    5.4167   -2.1167    0.0000 C   0  0  0  0  0  0  0  0  0  0  0  0
    4.8917   -0.3667    0.0000 C   0  0  0  0  0  0  0  0  0  0  0  0
    5.6167   -1.6042    0.0000 C   0  0  0  0  0  0  0  0  0  0  0  0
   -1.5250   -2.4500    0.0000 C   0  0  0  0  0  0  0  0  0  0  0  0
   -0.8083   -0.3875    0.0000 C   0  0  0  0  0  0  0  0  0  0  0  0
   -0.0958   -4.1000    0.0000 C   0  0  0  0  0  0  0  0  0  0  0  0
    3.3667   -2.7792    0.0000 C   0  0  0  0  0  0  0  0  0  0  0  0
    5.6042    0.0458    0.0000 C   0  0  0  0  0  0  0  0  0  0  0  0
    6.3292   -1.1917    0.0000 C   0  0  0  0  0  0  0  0  0  0  0  0
    6.3250   -0.3625    0.0000 C   0  0  0  0  0  0  0  0  0  0  0  0
  2  8  1  0
  3  9  1  0
  4  2  1  0
  5  1  2  0
  6  1  1  0
  7  5  1  0
  8  6  2  0
  9 10  1  0
 10  4  1  0
 12 13  1  0
 13 14  2  0
 14 11  1  0
 15  3  1  0
 16  4  2  0
 17  3  1  0
 18 12  2  0
 19 11  2  0
 20  1  1  0
 21  5  1  0
 22  6  1  0
 23 12  1  0
 24 11  1  0
 25  3  1  0
 26 15  1  0
 27 15  1  0
 28 17  2  0
 29 17  1  0
 30 20  1  0
 31 22  1  0
 32 21  1  0
 33 25  1  0
 34 28  1  0
 35 29  2  0
 36 35  1  0
  2  7  2  0
 34 36  2  0
M  END
>  <ID>  (1395) 


>  <MOLENAME>  (1395) 
TRIMEBUTINE MALEATE

>  <therap>  (1395) 
antispasmodic, opiod receptor agonist

>  <ref>  (1395) 
Japan J Pharmacol 33:301 (1983); Hepato-Gastroenterology 49:193 (2002)

>  <cas#>  (1395) 
34140-59-5(base)

>  <source>  (1395) 
synthetic

>  <status>  (1395) 
INN, BAN, JAN

>  <tradename>  (1395) 
nan

>  <SMILES>  (1395) 
CCC(COC(=O)c1cc(OC)c(OC)c(OC)c1)(c1ccccc1)N(C)C

>  <standardized_failed>  (1395) 
False

$$$$

     RDKit          2D

 12 10  0  0  0  0  0  0  0  0999 V2000
    6.9292   -4.4125    0.0000 C   0  0  0  0  0  0  0  0  0  0  0  0
    7.1292   -3.6917    0.0000 C   0  0  0  0  0  0  0  0  0  0  0  0
    5.2875   -5.5167    0.0000 N   0  0  0  0  0  0  0  0  0  0  0  0
    6.7917   -5.5292    0.0000 Cl  0  0  0  0  0  0  0  0  0  0  0  0
    7.8542   -3.5000    0.0000 O   0  0  0  0  0  0  0  0  0  0  0  0
    6.2042   -4.6042    0.0000 C   0  0  0  0  0  0  0  0  0  0  0  0
    6.0042   -5.3250    0.0000 C   0  0  0  0  0  0  0  0  0  0  0  0
    6.6042   -3.1625    0.0000 O   0  0  0  0  0  0  0  0  0  0  0  0
    5.4875   -4.0542    0.0000 O   0  0  0  0  0  0  0  0  0  0  0  0
    4.4667   -5.5042    0.0000 C   0  0  0  0  0  0  0  0  0  0  0  0
    5.2875   -6.2667    0.0000 C   0  0  0  0  0  0  0  0  0  0  0  0
    5.3167   -4.5542    0.0000 C   0  0  0  0  0  0  0  0  0  0  0  0
  2  1  1  0
  3  7  1  0
  5  2  2  0
  6  1  1  0
  7  6  1  0
  8  2  1  0
  9  6  1  0
 10  3  1  0
 11  3  1  0
 12  3  1  0
M  CHG  2   3   1   4  -1
M  END
>  <ID>  (1396) 


>  <MOLENAME>  (1396) 
CARNITINE (dl) HYDROCHLORIDE

>  <therap>  (1396) 
antihyperlipoproteinemic, gastric/ pancreatic secretion stimulant

>  <ref>  (1396) 
Cardiovasc Res 51:21 ((2001); Nutrition 20:709 (2004); Ann NY Acad Sci 1033:1 (2004)

>  <cas#>  (1396) 
461-06-3

>  <source>  (1396) 
striated muscle, liver; also in Pisum sativum

>  <status>  (1396) 
INN, JAN

>  <tradename>  (1396) 
FLATISINE

>  <SMILES>  (1396) 
C[N+](C)(C)CC(O)CC(=O)O

>  <standardized_failed>  (1396) 
False

$$$$

     RDKit          2D

 19 21  0  0  0  0  0  0  0  0999 V2000
    3.8667   -2.5417    0.0000 N   0  0  0  0  0  0  0  0  0  0  0  0
    3.0792   -2.2917    0.0000 C   0  0  0  0  0  0  0  0  0  0  0  0
    3.0750   -1.4667    0.0000 C   0  0  0  0  0  0  0  0  0  0  0  0
    3.8542   -3.3625    0.0000 C   0  0  0  0  0  0  0  0  0  0  0  0
    3.8542   -1.2042    0.0000 N   0  0  0  0  0  0  0  0  0  0  0  0
    4.1125   -4.1500    0.0000 C   0  0  0  0  0  0  0  0  0  0  0  0
    4.3500   -1.8667    0.0000 C   0  0  0  0  0  0  0  0  0  0  0  0
    3.0292   -3.3542    0.0000 O   0  0  0  0  0  0  0  0  0  0  0  0
    2.3542   -2.7042    0.0000 N   0  0  0  0  0  0  0  0  0  0  0  0
    2.3542   -1.0542    0.0000 C   0  0  0  0  0  0  0  0  0  0  0  0
    3.4417   -4.6292    0.0000 C   0  0  0  0  0  0  0  0  0  0  0  0
    2.7750   -4.1417    0.0000 C   0  0  0  0  0  0  0  0  0  0  0  0
    1.6417   -1.4667    0.0000 N   0  0  0  0  0  0  0  0  0  0  0  0
    1.6417   -2.2917    0.0000 C   0  0  0  0  0  0  0  0  0  0  0  0
    2.3542   -0.2292    0.0000 O   0  0  0  0  0  0  0  0  0  0  0  0
    4.8917   -4.4042    0.0000 O   0  0  0  0  0  0  0  0  0  0  0  0
    3.4375   -5.4542    0.0000 O   0  0  0  0  0  0  0  0  0  0  0  0
    1.9917   -4.3917    0.0000 C   0  0  0  0  0  0  0  0  0  0  0  0
    1.3792   -3.8375    0.0000 O   0  0  0  0  0  0  0  0  0  0  0  0
  2  1  1  0
  3  2  2  0
  4  1  1  0
  5  7  2  0
  6  4  1  0
  7  1  1  0
  8  4  1  0
  9  2  1  0
 10  3  1  0
 11  6  1  0
 12  8  1  0
 13 14  1  0
 14  9  2  0
 15 10  2  0
  6 16  1  6
 11 17  1  6
 12 18  1  1
 19 18  1  0
  5  3  1  0
 12 11  1  0
 10 13  1  0
M  END
>  <ID>  (1397) 


>  <MOLENAME>  (1397) 
INOSINE

>  <therap>  (1397) 
cell function activator, cardiotonic

>  <ref>  (1397) 
Biochem Biophys Res Commun 13:394 (1963); J Pharmacol 14:47 (1983)

>  <cas#>  (1397) 
58-63-9

>  <source>  (1397) 
meat extracts, sugar beet, Bacillus subtilis, E. coli, Saccharomyces cerevisiae, Fusarium spp

>  <status>  (1397) 
INN, JAN

>  <tradename>  (1397) 
nan

>  <SMILES>  (1397) 
O=c1[nH]cnc2c1ncn2C1O[C@H](CO)[C@@H](O)[C@H]1O

>  <standardized_failed>  (1397) 
False

$$$$

     RDKit          2D

 27 28  0  0  0  0  0  0  0  0999 V2000
    6.1625   -7.5292    0.0000 S   0  0  0  0  0  0  0  0  0  0  0  0
    5.4125   -5.3125    0.0000 C   0  0  0  0  0  0  0  0  0  0  0  0
    6.2292   -5.3125    0.0000 C   0  0  0  0  0  0  0  0  0  0  0  0
    7.4667   -6.0250    0.0000 N   0  0  0  0  0  0  0  0  0  0  0  0
    5.4875   -7.5292    0.0000 O   0  0  0  0  0  0  0  0  0  0  0  0
    6.1542   -8.2042    0.0000 O   0  0  0  0  0  0  0  0  0  0  0  0
    5.4125   -4.4875    0.0000 C   0  0  0  0  0  0  0  0  0  0  0  0
    4.7000   -5.7250    0.0000 C   0  0  0  0  0  0  0  0  0  0  0  0
    6.6417   -6.0250    0.0000 C   0  0  0  0  0  0  0  0  0  0  0  0
    6.1542   -6.8542    0.0000 O   0  0  0  0  0  0  0  0  0  0  0  0
    5.4042   -6.1375    0.0000 O   0  0  0  0  0  0  0  0  0  0  0  0
    6.8292   -7.5292    0.0000 C   0  0  0  0  0  0  0  0  0  0  0  0
    7.8750   -6.7375    0.0000 C   0  0  0  0  0  0  0  0  0  0  0  0
    7.8667   -5.3125    0.0000 C   0  0  0  0  0  0  0  0  0  0  0  0
    3.9875   -5.3125    0.0000 C   0  0  0  0  0  0  0  0  0  0  0  0
    4.7042   -6.5500    0.0000 C   0  0  0  0  0  0  0  0  0  0  0  0
    4.7000   -4.0667    0.0000 C   0  0  0  0  0  0  0  0  0  0  0  0
    6.1292   -4.0667    0.0000 C   0  0  0  0  0  0  0  0  0  0  0  0
    8.6917   -5.3167    0.0000 C   0  0  0  0  0  0  0  0  0  0  0  0
    8.6917   -6.7375    0.0000 C   0  0  0  0  0  0  0  0  0  0  0  0
    4.7000   -3.2500    0.0000 C   0  0  0  0  0  0  0  0  0  0  0  0
    3.2750   -5.7250    0.0000 C   0  0  0  0  0  0  0  0  0  0  0  0
    3.9917   -6.9625    0.0000 C   0  0  0  0  0  0  0  0  0  0  0  0
    6.1292   -3.2500    0.0000 C   0  0  0  0  0  0  0  0  0  0  0  0
    9.1042   -6.0292    0.0000 C   0  0  0  0  0  0  0  0  0  0  0  0
    5.4125   -2.8375    0.0000 C   0  0  0  0  0  0  0  0  0  0  0  0
    3.2750   -6.5500    0.0000 C   0  0  0  0  0  0  0  0  0  0  0  0
  3  2  1  0
  4  9  1  0
  5  1  2  0
  6  1  2  0
  7  2  1  0
  8  2  1  0
  9  3  1  0
 10  1  1  0
 11  2  1  0
 12  1  1  0
 13  4  1  0
 14  4  1  0
 15  8  2  0
 16  8  1  0
 17  7  2  0
 18  7  1  0
 19 14  1  0
 20 13  1  0
 21 17  1  0
 22 15  1  0
 23 16  2  0
 24 18  2  0
 25 19  1  0
 26 24  1  0
 27 23  1  0
 22 27  2  0
 21 26  2  0
 20 25  1  0
M  END
>  <ID>  (1398) 


>  <MOLENAME>  (1398) 
PRIDINOL METHANESULFONATE

>  <therap>  (1398) 
anticholinergic

>  <ref>  (1398) 
J Pharmacol Exp Ther 96:151 (1949)

>  <cas#>  (1398) 
511-45-5

>  <source>  (1398) 
synthetic; C-238

>  <status>  (1398) 
INN, JAN

>  <tradename>  (1398) 
PARKS 12

>  <SMILES>  (1398) 
OC(CCN1CCCCC1)(c1ccccc1)c1ccccc1

>  <standardized_failed>  (1398) 
False

$$$$

     RDKit          2D

 17 18  0  0  0  0  0  0  0  0999 V2000
    5.2792   -3.2125    0.0000 C   0  0  0  0  0  0  0  0  0  0  0  0
    5.9917   -3.6167    0.0000 N   0  0  0  0  0  0  0  0  0  0  0  0
    5.8292   -4.4292    0.0000 C   0  0  0  0  0  0  0  0  0  0  0  0
    5.0125   -4.5167    0.0000 C   0  0  0  0  0  0  0  0  0  0  0  0
    5.2792   -2.3792    0.0000 N   0  0  0  0  0  0  0  0  0  0  0  0
    4.6667   -3.7625    0.0000 O   0  0  0  0  0  0  0  0  0  0  0  0
    6.1667   -5.1750    0.0000 O   0  0  0  0  0  0  0  0  0  0  0  0
    6.7125   -3.2042    0.0000 C   0  0  0  0  0  0  0  0  0  0  0  0
    4.8417   -5.3167    0.0000 C   0  0  0  0  0  0  0  0  0  0  0  0
    5.9917   -1.9667    0.0000 C   0  0  0  0  0  0  0  0  0  0  0  0
    5.5542   -5.7250    0.0000 C   0  0  0  0  0  0  0  0  0  0  0  0
    6.7125   -2.3792    0.0000 C   0  0  0  0  0  0  0  0  0  0  0  0
    5.9917   -1.1417    0.0000 N   0  0  0  0  0  0  0  0  0  0  0  0
    4.0917   -5.6542    0.0000 O   0  0  0  0  0  0  0  0  0  0  0  0
    5.6500   -6.5417    0.0000 C   0  0  0  0  0  0  0  0  0  0  0  0
    7.3125   -1.5375    0.0000 Cl  0  0  0  0  0  0  0  0  0  0  0  0
    4.9792   -7.0292    0.0000 O   0  0  0  0  0  0  0  0  0  0  0  0
  2  1  1  0
  3  2  1  0
  4  6  1  1
  5  1  2  0
  6  1  1  0
  3  7  1  1
  8  2  1  0
  9  4  1  0
 10  5  1  0
 11  9  1  0
 12 10  1  0
 13 10  2  0
  9 14  1  6
 11 15  1  1
 17 15  1  0
  4  3  1  0
 12  8  2  0
  7 11  1  0
M  END
>  <ID>  (1399) 


>  <MOLENAME>  (1399) 
ANCITABINE HYDROCHLORIDE

>  <therap>  (1399) 
antineoplastic

>  <ref>  (1399) 
Carcinogenesis 7:1167 (1992)

>  <cas#>  (1399) 
10212-25-6

>  <source>  (1399) 
synthetic

>  <status>  (1399) 
INN, JAN

>  <tradename>  (1399) 
nan

>  <SMILES>  (1399) 
N=c1ccn2c(n1)O[C@@H]1[C@@H](O)[C@H](CO)O[C@@H]12

>  <standardized_failed>  (1399) 
False

$$$$

     RDKit          2D

 16 16  0  0  0  0  0  0  0  0999 V2000
    2.7750   -1.4292    0.0000 C   0  0  0  0  0  0  0  0  0  0  0  0
    3.5917   -1.4292    0.0000 C   0  0  0  0  0  0  0  0  0  0  0  0
    2.3625   -0.7167    0.0000 N   0  0  0  0  0  0  0  0  0  0  0  0
    2.3625   -2.1417    0.0000 O   0  0  0  0  0  0  0  0  0  0  0  0
    1.5417   -0.7167    0.0000 C   0  0  0  0  0  0  0  0  0  0  0  0
   -0.1083   -0.7167    0.0000 C   0  0  0  0  0  0  0  0  0  0  0  0
    4.0042   -2.1417    0.0000 C   0  0  0  0  0  0  0  0  0  0  0  0
    1.1292   -1.4292    0.0000 C   0  0  0  0  0  0  0  0  0  0  0  0
    1.1292   -0.0042    0.0000 C   0  0  0  0  0  0  0  0  0  0  0  0
    0.3042   -1.4292    0.0000 C   0  0  0  0  0  0  0  0  0  0  0  0
    0.3042   -0.0042    0.0000 C   0  0  0  0  0  0  0  0  0  0  0  0
   -0.9333   -0.7167    0.0000 O   0  0  0  0  0  0  0  0  0  0  0  0
    4.8292   -2.1417    0.0000 O   0  0  0  0  0  0  0  0  0  0  0  0
   -1.3458   -0.0042    0.0000 C   0  0  0  0  0  0  0  0  0  0  0  0
    3.5917   -2.8542    0.0000 C   0  0  0  0  0  0  0  0  0  0  0  0
   -2.1708   -0.0125    0.0000 C   0  0  0  0  0  0  0  0  0  0  0  0
  2  1  1  0
  3  1  1  0
  4  1  2  0
  5  3  1  0
  6 11  1  0
  7  2  1  0
  8  5  2  0
  9  5  1  0
 10  8  1  0
 11  9  2  0
 12  6  1  0
 13  7  1  0
 14 12  1  0
 15  7  1  0
 16 14  1  0
 10  6  2  0
M  END
>  <ID>  (1400) 


>  <MOLENAME>  (1400) 
BUCETIN

>  <therap>  (1400) 
analgesic

>  <ref>  (1400) 
Arnzneim Forsch 15:727 (1965); Chem Pharm Bull 16:1726, 2269 (1968)

>  <cas#>  (1400) 
1083-57-4

>  <source>  (1400) 
synthetic

>  <status>  (1400) 
INN, BAN, JAN

>  <tradename>  (1400) 
nan

>  <SMILES>  (1400) 
CCOc1ccc(NC(=O)CC(C)O)cc1

>  <standardized_failed>  (1400) 
False

$$$$

     RDKit          2D

 31 30  0  0  0  0  0  0  0  0999 V2000
    2.5417   -2.2125    0.0000 C   0  0  0  0  0  0  0  0  0  0  0  0
    4.6792   -2.6167    0.0000 C   0  0  0  0  0  0  0  0  0  0  0  0
    3.2542   -2.6167    0.0000 N   0  0  0  0  0  0  0  0  0  0  0  0
    3.9667   -2.2042    0.0000 C   0  0  0  0  0  0  0  0  0  0  0  0
    1.8292   -2.6250    0.0000 C   0  0  0  0  0  0  0  0  0  0  0  0
    0.4000   -2.6250    0.0000 C   0  0  0  0  0  0  0  0  0  0  0  0
    1.1125   -2.2125    0.0000 C   0  0  0  0  0  0  0  0  0  0  0  0
    4.6750   -0.1417    0.0000 C   0  0  0  0  0  0  0  0  0  0  0  0
    5.3917   -2.2042    0.0000 N   0  0  0  0  0  0  0  0  0  0  0  0
    0.4000   -3.4542    0.0000 C   0  0  0  0  0  0  0  0  0  0  0  0
    4.6750   -3.4417    0.0000 O   0  0  0  0  0  0  0  0  0  0  0  0
    2.5375   -1.3875    0.0000 O   0  0  0  0  0  0  0  0  0  0  0  0
    5.3875    0.2708    0.0000 O   0  0  0  0  0  0  0  0  0  0  0  0
    1.8292   -3.4542    0.0000 C   0  0  0  0  0  0  0  0  0  0  0  0
    3.9625   -1.3792    0.0000 C   0  0  0  0  0  0  0  0  0  0  0  0
    3.9542    0.2708    0.0000 O   0  0  0  0  0  0  0  0  0  0  0  0
    1.1125   -3.8667    0.0000 C   0  0  0  0  0  0  0  0  0  0  0  0
    4.6750   -0.9667    0.0000 C   0  0  0  0  0  0  0  0  0  0  0  0
   -0.3208   -2.2125    0.0000 Cl  0  0  0  0  0  0  0  0  0  0  0  0
   -0.3208   -3.8625    0.0000 Cl  0  0  0  0  0  0  0  0  0  0  0  0
    6.7042    0.2833    0.0000 Na  0  0  0  0  0 15  0  0  0  0  0  0
    6.1042   -2.6125    0.0000 C   0  0  0  0  0  0  0  0  0  0  0  0
    5.3875   -1.3792    0.0000 C   0  0  0  0  0  0  0  0  0  0  0  0
    6.1000   -0.9625    0.0000 C   0  0  0  0  0  0  0  0  0  0  0  0
    6.8167   -2.2000    0.0000 C   0  0  0  0  0  0  0  0  0  0  0  0
    8.2417   -2.1917    0.0000 C   0  0  0  0  0  0  0  0  0  0  0  0
    7.5292   -0.9542    0.0000 C   0  0  0  0  0  0  0  0  0  0  0  0
    7.5292   -2.6042    0.0000 C   0  0  0  0  0  0  0  0  0  0  0  0
    6.8167   -1.3750    0.0000 C   0  0  0  0  0  0  0  0  0  0  0  0
    8.9542   -2.6042    0.0000 C   0  0  0  0  0  0  0  0  0  0  0  0
    8.2417   -1.3667    0.0000 C   0  0  0  0  0  0  0  0  0  0  0  0
  2  4  1  0
  3  1  1  0
  4  3  1  0
  5  1  1  0
  6  7  1  0
  7  5  2  0
  8 18  1  0
  9  2  1  0
 10 17  1  0
 11  2  2  0
 12  1  2  0
 13  8  1  0
 14  5  1  0
 15  4  1  0
 16  8  2  0
 17 14  2  0
 18 15  1  0
 19  6  1  0
 20 10  1  0
 22  9  1  0
 23  9  1  0
 24 23  1  0
 25 22  1  0
 26 28  1  0
 27 29  1  0
 28 25  1  0
 29 24  1  0
 30 26  1  0
 31 27  1  0
  6 10  2  0
M  CHG  2  13  -1  21   1
M  END
>  <ID>  (1401) 


>  <MOLENAME>  (1401) 
LORGLUMIDE SODIUM

>  <therap>  (1401) 
CCK receptor antagonist

>  <ref>  (1401) 
Arzneim-Forsch 37: 1265 (1987)

>  <cas#>  (1401) 
97964-56-2 (acid)

>  <source>  (1401) 
synthetic

>  <status>  (1401) 
INN

>  <tradename>  (1401) 
nan

>  <SMILES>  (1401) 
CCCCCN(CCCCC)C(=O)C(CCC(=O)O)NC(=O)c1cc(Cl)c(Cl)cc1

>  <standardized_failed>  (1401) 
False

$$$$

     RDKit          2D

 13 13  0  0  0  0  0  0  0  0999 V2000
    3.2042   -2.3667    0.0000 C   0  0  0  0  0  0  0  0  0  0  0  0
    3.8750   -1.8792    0.0000 N   0  0  0  0  0  0  0  0  0  0  0  0
    2.4250   -2.1125    0.0000 N   0  0  0  0  0  0  0  0  0  0  0  0
    3.4625   -3.1542    0.0000 C   0  0  0  0  0  0  0  0  0  0  0  0
    4.2875   -3.1542    0.0000 N   0  0  0  0  0  0  0  0  0  0  0  0
    4.5417   -2.3667    0.0000 C   0  0  0  0  0  0  0  0  0  0  0  0
    3.8667   -1.0542    0.0000 C   0  0  0  0  0  0  0  0  0  0  0  0
    2.2500   -1.3000    0.0000 O   0  0  0  0  0  0  0  0  0  0  0  0
    1.8042   -2.6625    0.0000 O   0  0  0  0  0  0  0  0  0  0  0  0
    5.3292   -2.1125    0.0000 C   0  0  0  0  0  0  0  0  0  0  0  0
    4.5875   -0.6417    0.0000 C   0  0  0  0  0  0  0  0  0  0  0  0
    4.5792    0.1833    0.0000 O   0  0  0  0  0  0  0  0  0  0  0  0
    5.3000   -1.0542    0.0000 C   0  0  0  0  0  0  0  0  0  0  0  0
  2  1  1  0
  3  1  1  0
  4  1  2  0
  5  4  1  0
  6  2  1  0
  7  2  1  0
  8  3  1  0
  9  3  2  0
 10  6  1  0
 11  7  1  0
 12 11  1  0
 13 11  1  0
  6  5  2  0
M  CHG  2   3   1   8  -1
M  END
>  <ID>  (1402) 


>  <MOLENAME>  (1402) 
SECNIDAZOLE

>  <therap>  (1402) 
antiameobic, antitrichomonas

>  <ref>  (1402) 
Drugs 51:621 (1996)

>  <cas#>  (1402) 
3366-95-8

>  <source>  (1402) 
synthetic; PM-185184, RP-14539

>  <status>  (1402) 
INN, BAN

>  <tradename>  (1402) 
nan

>  <SMILES>  (1402) 
Cc1ncc([N+](=O)[O-])n1CC(C)O

>  <standardized_failed>  (1402) 
False

$$$$

     RDKit          2D

 19 19  0  0  0  0  0  0  0  0999 V2000
    6.3667   -6.5375    0.0000 C   0  0  0  0  0  0  0  0  0  0  0  0
    6.7875   -5.8250    0.0000 C   0  0  0  0  0  0  0  0  0  0  0  0
    8.0292   -5.1250    0.0000 N   0  0  0  0  0  0  0  0  0  0  0  0
    7.6125   -5.8375    0.0000 C   0  0  0  0  0  0  0  0  0  0  0  0
    5.5417   -6.5250    0.0000 C   0  0  0  0  0  0  0  0  0  0  0  0
    6.7750   -7.2542    0.0000 O   0  0  0  0  0  0  0  0  0  0  0  0
    5.1417   -5.8125    0.0000 C   0  0  0  0  0  0  0  0  0  0  0  0
    5.1250   -7.2375    0.0000 C   0  0  0  0  0  0  0  0  0  0  0  0
    4.3167   -5.8042    0.0000 C   0  0  0  0  0  0  0  0  0  0  0  0
    4.3042   -7.2292    0.0000 C   0  0  0  0  0  0  0  0  0  0  0  0
    3.8917   -6.5167    0.0000 C   0  0  0  0  0  0  0  0  0  0  0  0
    9.1042   -6.0250    0.0000 Cl  0  0  0  0  0  0  0  0  0  0  0  0
    6.3792   -5.1042    0.0000 C   0  0  0  0  0  0  0  0  0  0  0  0
    8.8542   -5.1375    0.0000 C   0  0  0  0  0  0  0  0  0  0  0  0
    7.6250   -4.4042    0.0000 C   0  0  0  0  0  0  0  0  0  0  0  0
    3.0667   -6.5125    0.0000 C   0  0  0  0  0  0  0  0  0  0  0  0
    8.0500   -3.7000    0.0000 C   0  0  0  0  0  0  0  0  0  0  0  0
    9.2792   -4.4250    0.0000 C   0  0  0  0  0  0  0  0  0  0  0  0
    8.8750   -3.7000    0.0000 C   0  0  0  0  0  0  0  0  0  0  0  0
  2  1  1  0
  3  4  1  0
  4  2  1  0
  5  1  1  0
  6  1  2  0
  7  5  2  0
  8  5  1  0
  9  7  1  0
 10  8  2  0
 11 10  1  0
 13  2  1  0
 14  3  1  0
 15  3  1  0
 16 11  1  0
 17 15  1  0
 18 14  1  0
 19 18  1  0
  9 11  2  0
 17 19  1  0
M  END
>  <ID>  (1403) 


>  <MOLENAME>  (1403) 
TOLPERISONE HYDROCHLORIDE

>  <therap>  (1403) 
muscle relaxant (skeletal)

>  <ref>  (1403) 
Acta Phsiol Acad Sci hung 18:149 (1960); Arzneim Forsch 11:257 (1961)

>  <cas#>  (1403) 
70312-00-4

>  <source>  (1403) 
synthetic; N-553

>  <status>  (1403) 
INN, BAN, JAN

>  <tradename>  (1403) 
MYDOCLAM

>  <SMILES>  (1403) 
Cc1ccc(C(=O)C(C)CN2CCCCC2)cc1

>  <standardized_failed>  (1403) 
False

$$$$

     RDKit          2D

 11  9  0  0  0  0  0  0  0  0999 V2000
    1.5542   -0.4292    0.0000 C   0  0  0  0  0  0  0  0  0  0  0  0
    6.9500   -0.3750    0.0000 Cl  0  0  0  0  0  0  0  0  0  0  0  0
    1.5542   -1.2542    0.0000 O   0  0  0  0  0  0  0  0  0  0  0  0
    3.6292   -2.5792    0.0000 N   0  0  0  0  0  0  0  0  0  0  0  0
    2.7917   -1.1417    0.0000 C   0  0  0  0  0  0  0  0  0  0  0  0
    2.3792   -0.4292    0.0000 C   0  0  0  0  0  0  0  0  0  0  0  0
    4.0417   -1.8542    0.0000 C   0  0  0  0  0  0  0  0  0  0  0  0
    0.7292   -0.4292    0.0000 C   0  0  0  0  0  0  0  0  0  0  0  0
    1.5542    0.3958    0.0000 C   0  0  0  0  0  0  0  0  0  0  0  0
    3.6292   -1.1417    0.0000 C   0  0  0  0  0  0  0  0  0  0  0  0
    4.9917   -1.8417    0.0000 C   0  0  0  0  0  0  0  0  0  0  0  0
  3  1  1  0
  4  7  1  0
  5  6  1  0
  6  1  1  0
  7 10  1  0
  8  1  1  0
  9  1  1  0
 10  5  1  0
 11  7  1  0
M  END
>  <ID>  (1404) 


>  <MOLENAME>  (1404) 
HEPTAMINOL HYDROCHLORIDE

>  <therap>  (1404) 
vasodilator

>  <ref>  (1404) 
Ann. Pharm. Fr(1991), 49(3), 127-38; Therapie (1974), 29(3), 435-46; Arzneim. Forsch. (1972), 22(10), 1791-3

>  <cas#>  (1404) 
543-15-7, 372-66-7 [heptaminol]

>  <source>  (1404) 
synthetic

>  <status>  (1404) 
INN, BAN

>  <tradename>  (1404) 
nan

>  <SMILES>  (1404) 
CC(N)CCCC(C)(C)O

>  <standardized_failed>  (1404) 
False

$$$$

     RDKit          2D

 26 29  0  0  0  0  0  0  0  0999 V2000
    6.4292   -4.6167    0.0000 N   0  0  0  0  0  0  0  0  0  0  0  0
    6.4292   -3.7917    0.0000 C   0  0  0  0  0  0  0  0  0  0  0  0
    5.0000   -4.6167    0.0000 C   0  0  0  0  0  0  0  0  0  0  0  0
    7.1417   -3.3792    0.0000 C   0  0  0  0  0  0  0  0  0  0  0  0
    5.7167   -5.0292    0.0000 C   0  0  0  0  0  0  0  0  0  0  0  0
    5.7167   -3.3792    0.0000 C   0  0  0  0  0  0  0  0  0  0  0  0
    7.8542   -3.7917    0.0000 C   0  0  0  0  0  0  0  0  0  0  0  0
    7.1417   -2.5500    0.0000 C   0  0  0  0  0  0  0  0  0  0  0  0
    4.2875   -5.0292    0.0000 C   0  0  0  0  0  0  0  0  0  0  0  0
    5.0000   -3.7917    0.0000 C   0  0  0  0  0  0  0  0  0  0  0  0
    7.8542   -2.1375    0.0000 C   0  0  0  0  0  0  0  0  0  0  0  0
    8.5750   -2.5500    0.0000 C   0  0  0  0  0  0  0  0  0  0  0  0
    8.5750   -3.3792    0.0000 C   0  0  0  0  0  0  0  0  0  0  0  0
    7.1417   -5.0292    0.0000 C   0  0  0  0  0  0  0  0  0  0  0  0
    8.0250   -1.3292    0.0000 O   0  0  0  0  0  0  0  0  0  0  0  0
    9.1875   -1.9917    0.0000 O   0  0  0  0  0  0  0  0  0  0  0  0
    3.5667   -4.6167    0.0000 C   0  0  0  0  0  0  0  0  0  0  0  0
    8.8417   -1.2417    0.0000 C   0  0  0  0  0  0  0  0  0  0  0  0
    7.8542   -4.6167    0.0000 C   0  0  0  0  0  0  0  0  0  0  0  0
    4.2875   -3.3792    0.0000 C   0  0  0  0  0  0  0  0  0  0  0  0
    6.6042   -5.6542    0.0000 Cl  0  0  0  0  0  0  0  0  0  0  0  0
    3.5667   -3.7917    0.0000 C   0  0  0  0  0  0  0  0  0  0  0  0
    4.2875   -5.8542    0.0000 O   0  0  0  0  0  0  0  0  0  0  0  0
    2.8500   -5.0292    0.0000 O   0  0  0  0  0  0  0  0  0  0  0  0
    3.5750   -6.2667    0.0000 C   0  0  0  0  0  0  0  0  0  0  0  0
    2.8417   -5.8542    0.0000 C   0  0  0  0  0  0  0  0  0  0  0  0
  2  1  2  0
  3  5  2  0
  4  2  1  0
  5  1  1  0
  6  2  1  0
  7 19  1  0
  8  4  2  0
  9  3  1  0
 10  3  1  0
 11  8  1  0
 12 13  1  0
 13  7  2  0
 14  1  1  0
 15 11  1  0
 16 12  1  0
 17  9  2  0
 18 15  1  0
 19 14  1  0
 20 10  1  0
 22 20  2  0
 23  9  1  0
 24 17  1  0
 25 23  1  0
 26 24  1  0
  4  7  1  0
  6 10  2  0
 11 12  2  0
 22 17  1  0
 16 18  1  0
M  CHG  2   1   1  21  -1
M  END
>  <ID>  (1405) 


>  <MOLENAME>  (1405) 
BERBERINE CHLORIDE

>  <therap>  (1405) 
antiarrhythmic, alpha2 agonist, anticonvulsant, antiinflammatory, antibacterial, antifungal, antitrypanosomal, antineoplastic, immunostimulant

>  <ref>  (1405) 
Coll Czech Chem Comm 35:124 (1970); J Nat Prod 40:384 (1977); Agents Actions 14:401 (1984); Alkaloids 28:78 (1986); Life Sci 49:315 (1991); J Cardiovasc Pharmacol 23:716 (1994)

>  <cas#>  (1405) 
633-65-8, 2086-83-1

>  <source>  (1405) 
Berberis and Mahonia spp

>  <status>  (1405) 
JAN

>  <tradename>  (1405) 
nan

>  <SMILES>  (1405) 
COc1c(OC)c2c[n+]3c(cc2cc1)-c1cc2c(cc1CC3)OCO2

>  <standardized_failed>  (1405) 
False

$$$$

     RDKit          2D

 42 46  0  0  0  0  0  0  0  0999 V2000
    3.2250   -2.9417    0.0000 C   0  0  0  0  0  0  0  0  0  0  0  0
    3.2292    0.8333    0.0000 C   0  0  0  0  0  0  0  0  0  0  0  0
    3.8792   -1.8167    0.0000 C   0  0  0  0  0  0  0  0  0  0  0  0
    1.2750   -0.3042    0.0000 C   0  0  0  0  0  0  0  0  0  0  0  0
    3.8792   -0.3042    0.0000 C   0  0  0  0  0  0  0  0  0  0  0  0
    1.2750   -1.8167    0.0000 C   0  0  0  0  0  0  0  0  0  0  0  0
    1.9167    0.8208    0.0000 C   0  0  0  0  0  0  0  0  0  0  0  0
    1.9292   -2.9417    0.0000 C   0  0  0  0  0  0  0  0  0  0  0  0
    2.5875    0.2583    0.0000 N   0  0  0  0  0  0  0  0  0  0  0  0
    2.5750   -2.4292    0.0000 N   0  0  0  0  0  0  0  0  0  0  0  0
    1.8500   -1.0542    0.0000 N   0  0  0  0  0  0  0  0  0  0  0  0
    3.2750   -1.0542    0.0000 N   0  0  0  0  0  0  0  0  0  0  0  0
    2.9917   -3.6917    0.0000 C   0  0  0  0  0  0  0  0  0  0  0  0
    4.5375   -1.4417    0.0000 C   0  0  0  0  0  0  0  0  0  0  0  0
    2.9542    1.5958    0.0000 C   0  0  0  0  0  0  0  0  0  0  0  0
    0.6167   -0.6792    0.0000 C   0  0  0  0  0  0  0  0  0  0  0  0
    3.8792   -2.5667    0.0000 C   0  0  0  0  0  0  0  0  0  0  0  0
    3.8875    0.4458    0.0000 C   0  0  0  0  0  0  0  0  0  0  0  0
    1.2792   -2.5667    0.0000 C   0  0  0  0  0  0  0  0  0  0  0  0
    1.2667    0.4458    0.0000 C   0  0  0  0  0  0  0  0  0  0  0  0
    4.5375   -0.6792    0.0000 C   0  0  0  0  0  0  0  0  0  0  0  0
    0.6167   -1.4417    0.0000 C   0  0  0  0  0  0  0  0  0  0  0  0
    2.1625   -3.6917    0.0000 C   0  0  0  0  0  0  0  0  0  0  0  0
    2.1750    1.5833    0.0000 C   0  0  0  0  0  0  0  0  0  0  0  0
    3.4375   -4.2917    0.0000 C   0  0  0  0  0  0  0  0  0  0  0  0
    5.1875   -1.8042    0.0000 C   0  0  0  0  0  0  0  0  0  0  0  0
   -0.0333   -0.3042    0.0000 C   0  0  0  0  0  0  0  0  0  0  0  0
    3.3792    2.2083    0.0000 C   0  0  0  0  0  0  0  0  0  0  0  0
    4.6292   -4.8042    0.0000 C   0  0  0  0  0  0  0  0  0  0  0  0
    5.8375   -2.9292    0.0000 C   0  0  0  0  0  0  0  0  0  0  0  0
    4.3250   -5.4917    0.0000 O   0  0  0  0  0  0  0  0  0  0  0  0
    6.4875   -2.5542    0.0000 O   0  0  0  0  0  0  0  0  0  0  0  0
    5.1875   -2.5542    0.0000 C   0  0  0  0  0  0  0  0  0  0  0  0
    4.1792   -4.2042    0.0000 C   0  0  0  0  0  0  0  0  0  0  0  0
    4.1292    2.1583    0.0000 C   0  0  0  0  0  0  0  0  0  0  0  0
   -0.0333    0.4458    0.0000 C   0  0  0  0  0  0  0  0  0  0  0  0
    5.8375   -3.6792    0.0000 O   0  0  0  0  0  0  0  0  0  0  0  0
    5.3667   -4.7292    0.0000 O   0  0  0  0  0  0  0  0  0  0  0  0
   -0.0333   -1.8167    0.0000 C   0  0  0  0  0  0  0  0  0  0  0  0
    5.1875   -0.3042    0.0000 C   0  0  0  0  0  0  0  0  0  0  0  0
    1.7292    2.1833    0.0000 C   0  0  0  0  0  0  0  0  0  0  0  0
    1.7167   -4.2917    0.0000 C   0  0  0  0  0  0  0  0  0  0  0  0
  2 18  2  0
  3 17  1  0
  4 11  1  0
  5 12  1  0
  6 19  2  0
  7  9  2  0
  8 10  2  0
  9  2  1  0
 10  1  1  0
 11  6  1  0
 12  3  1  0
 13  1  1  0
 14  3  2  0
 15  2  1  0
 16 22  2  0
 17  1  2  0
 18  5  1  0
 19  8  1  0
 20  4  2  0
 21 14  1  0
 22  6  1  0
 23 13  2  0
 24 15  2  0
 25 13  1  0
 26 14  1  0
 27 16  1  0
 28 15  1  0
 29 34  1  0
 30 33  1  0
 31 29  2  0
 32 30  2  0
 33 26  1  0
 34 25  1  0
 35 28  2  0
 36 27  2  0
 37 30  1  0
 38 29  1  0
 39 22  1  0
 40 21  1  0
 41 24  1  0
 42 23  1  0
  8 23  1  0
 21  5  2  0
  4 16  1  0
 20  7  1  0
 24  7  1  0
M  END
>  <ID>  (1406) 


>  <MOLENAME>  (1406) 
PROTOPORPHYRIN IX

>  <therap>  (1406) 
hepatoprotectant

>  <ref>  (1406) 
J Org Chem 25:1073 (1960); Jacs 99:6639 (1977)

>  <cas#>  (1406) 
553-12-8

>  <source>  (1406) 
mamalian feces, avian pigment

>  <status>  (1406) 
JAN

>  <tradename>  (1406) 
nan

>  <SMILES>  (1406) 
C=CC1=C(C)c2nc1cc1c(C)c(CCC(=O)O)c(cc3nc(cc4[nH]c(c2)c(C=C)c4C)C(C)=C3CCC(=O)O)[nH]1

>  <standardized_failed>  (1406) 
False

$$$$

     RDKit          2D

 36 35  0  0  0  0  0  0  0  0999 V2000
   12.3750   -1.8417    0.0000 C   0  0  0  0  0  0  0  0  0  0  0  0
   -0.0375   -1.8500    0.0000 C   0  0  0  0  0  0  0  0  0  0  0  0
   -1.4625   -1.8542    0.0000 C   0  0  0  0  0  0  0  0  0  0  0  0
   13.8000   -1.8500    0.0000 C   0  0  0  0  0  0  0  0  0  0  0  0
   -0.7500   -1.4417    0.0000 C   0  0  0  0  0  0  0  0  0  0  0  0
   13.0875   -1.4375    0.0000 C   0  0  0  0  0  0  0  0  0  0  0  0
    9.5250   -1.8375    0.0000 C   0  0  0  0  0  0  0  0  0  0  0  0
    2.8125   -1.8417    0.0000 C   0  0  0  0  0  0  0  0  0  0  0  0
    2.1000   -1.4292    0.0000 C   0  0  0  0  0  0  0  0  0  0  0  0
   10.2375   -1.4292    0.0000 C   0  0  0  0  0  0  0  0  0  0  0  0
   12.3667   -2.6667    0.0000 O   0  0  0  0  0  0  0  0  0  0  0  0
   -0.0375   -2.6750    0.0000 O   0  0  0  0  0  0  0  0  0  0  0  0
    9.5167   -2.6625    0.0000 O   0  0  0  0  0  0  0  0  0  0  0  0
    2.8125   -2.6667    0.0000 O   0  0  0  0  0  0  0  0  0  0  0  0
   11.6625   -1.4292    0.0000 N   0  0  0  0  0  0  0  0  0  0  0  0
    0.6750   -1.4375    0.0000 N   0  0  0  0  0  0  0  0  0  0  0  0
    8.8125   -1.4250    0.0000 N   0  0  0  0  0  0  0  0  0  0  0  0
    3.5250   -1.4292    0.0000 N   0  0  0  0  0  0  0  0  0  0  0  0
    6.6667   -1.8292    0.0000 S   0  0  0  0  0  0  0  0  0  0  0  0
    5.6625   -1.8292    0.0000 S   0  0  0  0  0  0  0  0  0  0  0  0
   10.9500   -1.8417    0.0000 C   0  0  0  0  0  0  0  0  0  0  0  0
    1.3875   -1.8417    0.0000 C   0  0  0  0  0  0  0  0  0  0  0  0
   -0.7583   -0.6167    0.0000 O   0  0  0  0  0  0  0  0  0  0  0  0
   13.0875   -0.6125    0.0000 O   0  0  0  0  0  0  0  0  0  0  0  0
    7.3875   -1.4167    0.0000 C   0  0  0  0  0  0  0  0  0  0  0  0
    4.9500   -1.4250    0.0000 C   0  0  0  0  0  0  0  0  0  0  0  0
   -2.1750   -1.4417    0.0000 C   0  0  0  0  0  0  0  0  0  0  0  0
   14.5125   -1.4417    0.0000 C   0  0  0  0  0  0  0  0  0  0  0  0
   14.3875   -2.4292    0.0000 C   0  0  0  0  0  0  0  0  0  0  0  0
   13.2167   -2.4292    0.0000 C   0  0  0  0  0  0  0  0  0  0  0  0
   -2.0500   -2.4375    0.0000 C   0  0  0  0  0  0  0  0  0  0  0  0
   -0.8833   -2.4375    0.0000 C   0  0  0  0  0  0  0  0  0  0  0  0
   15.2250   -1.8542    0.0000 O   0  0  0  0  0  0  0  0  0  0  0  0
   -2.8875   -1.8542    0.0000 O   0  0  0  0  0  0  0  0  0  0  0  0
    4.2375   -1.8375    0.0000 C   0  0  0  0  0  0  0  0  0  0  0  0
    8.1000   -1.8292    0.0000 C   0  0  0  0  0  0  0  0  0  0  0  0
  2 16  1  0
  3  5  1  0
  4  6  1  0
  5  2  1  0
  6  1  1  0
  7 10  1  0
  8 18  1  0
  9  8  1  0
 10 21  1  0
 11  1  2  0
 12  2  2  0
 13  7  2  0
 14  8  2  0
 15  1  1  0
 16 22  1  0
 17  7  1  0
 18 35  1  0
 19 25  1  0
 20 19  1  0
 21 15  1  0
 22  9  1  0
 23  5  1  0
 24  6  1  0
 25 36  1  0
 26 20  1  0
 27  3  1  0
 28  4  1  0
 29  4  1  0
 30  4  1  0
 31  3  1  0
 32  3  1  0
 33 28  1  0
 34 27  1  0
 35 26  1  0
 36 17  1  0
M  END
>  <ID>  (1407) 


>  <MOLENAME>  (1407) 
PANTETHINE

>  <therap>  (1407) 
antilipemic

>  <ref>  (1407) 
J Chem Soc 1954:1171; Atherosclerosis 50:73 (1984)

>  <cas#>  (1407) 
16816-67-4

>  <source>  (1407) 
semisynthetic

>  <status>  (1407) 
JAN

>  <tradename>  (1407) 
nan

>  <SMILES>  (1407) 
CC(C)(CO)C(O)C(=O)NCCC(=O)NCCSSCCNC(=O)CCNC(=O)C(O)C(C)(C)CO

>  <standardized_failed>  (1407) 
False

$$$$

     RDKit          2D

 37 36  0  0  0  0  0  0  0  0999 V2000
    8.9375    1.7708    0.0000 C   0  0  0  0  0  0  0  0  0  0  0  0
    8.3667    1.4458    0.0000 C   0  0  0  0  0  0  0  0  0  0  0  0
    9.5042    1.4458    0.0000 C   0  0  0  0  0  0  0  0  0  0  0  0
    8.9375    2.4333    0.0000 C   0  0  0  0  0  0  0  0  0  0  0  0
    3.4875    1.1875    0.0000 C   0  0  0  0  0  0  0  0  0  0  0  0
    3.9000    0.4750    0.0000 C   0  0  0  0  0  0  0  0  0  0  0  0
    7.7917    1.7750    0.0000 C   0  0  0  0  0  0  0  0  0  0  0  0
    9.5042    0.7833    0.0000 C   0  0  0  0  0  0  0  0  0  0  0  0
    8.3667    2.7708    0.0000 O   0  0  0  0  0  0  0  0  0  0  0  0
    3.4875   -0.2375    0.0000 O   0  0  0  0  0  0  0  0  0  0  0  0
    2.6667    1.1875    0.0000 C   0  0  0  0  0  0  0  0  0  0  0  0
    8.9375    0.4500    0.0000 O   0  0  0  0  0  0  0  0  0  0  0  0
    7.2167    1.4458    0.0000 O   0  0  0  0  0  0  0  0  0  0  0  0
    8.9292    1.1208    0.0000 O   0  0  0  0  0  0  0  0  0  0  0  0
    9.5042    2.7708    0.0000 O   0  0  0  0  0  0  0  0  0  0  0  0
    4.7167    0.4750    0.0000 O   0  0  0  0  0  0  0  0  0  0  0  0
    8.4250   -1.6542    0.0000 N   0  0  0  0  0  0  0  0  0  0  0  0
   10.0792    0.4500    0.0000 O   0  0  0  0  0  0  0  0  0  0  0  0
    7.7917    2.4333    0.0000 O   0  0  0  0  0  0  0  0  0  0  0  0
    3.0667    1.9083    0.0000 C   0  0  0  0  0  0  0  0  0  0  0  0
    3.8917    1.9083    0.0000 C   0  0  0  0  0  0  0  0  0  0  0  0
    6.3667   -0.9500    0.0000 O   0  0  0  0  0  0  0  0  0  0  0  0
    2.2417    1.9083    0.0000 C   0  0  0  0  0  0  0  0  0  0  0  0
    2.2542    0.4750    0.0000 C   0  0  0  0  0  0  0  0  0  0  0  0
    7.6000   -1.6625    0.0000 C   0  0  0  0  0  0  0  0  0  0  0  0
    8.8292   -0.9417    0.0000 C   0  0  0  0  0  0  0  0  0  0  0  0
    8.8375   -2.3750    0.0000 C   0  0  0  0  0  0  0  0  0  0  0  0
    5.1292   -0.2375    0.0000 C   0  0  0  0  0  0  0  0  0  0  0  0
    7.1875   -0.9500    0.0000 C   0  0  0  0  0  0  0  0  0  0  0  0
    5.9542   -0.2375    0.0000 C   0  0  0  0  0  0  0  0  0  0  0  0
    3.4792    2.6208    0.0000 C   0  0  0  0  0  0  0  0  0  0  0  0
    4.7167    1.9083    0.0000 C   0  0  0  0  0  0  0  0  0  0  0  0
    9.6625   -2.3667    0.0000 C   0  0  0  0  0  0  0  0  0  0  0  0
    9.6542   -0.9417    0.0000 C   0  0  0  0  0  0  0  0  0  0  0  0
    1.4292    0.4750    0.0000 C   0  0  0  0  0  0  0  0  0  0  0  0
    1.4292    1.8958    0.0000 C   0  0  0  0  0  0  0  0  0  0  0  0
    1.0167    1.1833    0.0000 C   0  0  0  0  0  0  0  0  0  0  0  0
  2  1  1  0
  3  1  1  0
  4  1  1  0
  6  5  1  0
  7  2  1  0
  8  3  1  0
  9  4  2  0
 10  6  2  0
 11  5  1  0
 12  8  2  0
 13  7  2  0
 14  1  1  0
 15  4  1  0
 16  6  1  0
 17 25  1  0
 18  8  1  0
 19  7  1  0
 20  5  1  0
 21  5  1  0
 22 30  1  0
 23 11  2  0
 24 11  1  0
 25 29  1  0
 26 17  1  0
 27 17  1  0
 28 16  1  0
 29 22  1  0
 30 28  1  0
 31 20  1  0
 32 21  1  0
 33 27  1  0
 34 26  1  0
 35 24  2  0
 36 23  1  0
 37 35  1  0
 36 37  2  0
M  END
>  <ID>  (1408) 


>  <MOLENAME>  (1408) 
OXELAIDIN CITRATE

>  <therap>  (1408) 
antitussive

>  <ref>  (1408) 
J Pharm Pharmacol 10:40 (1958)

>  <cas#>  (1408) 
52432-72-1, 468-61-1 (base)

>  <source>  (1408) 
synthetic

>  <status>  (1408) 
INN, BAN

>  <tradename>  (1408) 
nan

>  <SMILES>  (1408) 
CCN(CC)CCOCCOC(=O)C(CC)(CC)c1ccccc1

>  <standardized_failed>  (1408) 
False

$$$$

     RDKit          2D

 24 25  0  0  0  0  0  0  0  0999 V2000
    4.8875   -0.5000    0.0000 C   0  0  0  0  0  0  0  0  0  0  0  0
    0.7875   -1.9292    0.0000 C   0  0  0  0  0  0  0  0  0  0  0  0
   -0.0375   -1.9292    0.0000 C   0  0  0  0  0  0  0  0  0  0  0  0
    5.7125   -0.5000    0.0000 C   0  0  0  0  0  0  0  0  0  0  0  0
    5.7167    0.9208    0.0000 N   0  0  0  0  0  0  0  0  0  0  0  0
   -0.0375   -0.5042    0.0000 N   0  0  0  0  0  0  0  0  0  0  0  0
    1.2000   -1.2167    0.0000 C   0  0  0  0  0  0  0  0  0  0  0  0
    4.4792    0.2083    0.0000 C   0  0  0  0  0  0  0  0  0  0  0  0
    6.1167    0.2083    0.0000 C   0  0  0  0  0  0  0  0  0  0  0  0
   -0.4458   -1.2167    0.0000 C   0  0  0  0  0  0  0  0  0  0  0  0
    4.8875    0.9250    0.0000 C   0  0  0  0  0  0  0  0  0  0  0  0
    0.7875   -0.5042    0.0000 C   0  0  0  0  0  0  0  0  0  0  0  0
    6.1250   -1.2125    0.0000 O   0  0  0  0  0  0  0  0  0  0  0  0
   -0.4458   -2.6417    0.0000 O   0  0  0  0  0  0  0  0  0  0  0  0
    3.2500   -0.5042    0.0000 S   0  0  0  0  0  0  0  0  0  0  0  0
    2.4292   -0.5042    0.0000 S   0  0  0  0  0  0  0  0  0  0  0  0
    4.4750   -1.2167    0.0000 C   0  0  0  0  0  0  0  0  0  0  0  0
    1.2000   -2.6417    0.0000 C   0  0  0  0  0  0  0  0  0  0  0  0
    2.0167   -1.2167    0.0000 C   0  0  0  0  0  0  0  0  0  0  0  0
    3.6542    0.2083    0.0000 C   0  0  0  0  0  0  0  0  0  0  0  0
    4.8875   -1.9292    0.0000 O   0  0  0  0  0  0  0  0  0  0  0  0
    0.7875   -3.3542    0.0000 O   0  0  0  0  0  0  0  0  0  0  0  0
   -1.2708   -1.2167    0.0000 C   0  0  0  0  0  0  0  0  0  0  0  0
    6.9417    0.2083    0.0000 C   0  0  0  0  0  0  0  0  0  0  0  0
  2  7  2  0
  3  2  1  0
  4  1  2  0
  5 11  1  0
  6 12  2  0
  7 19  1  0
  8  1  1  0
  9  4  1  0
 10  6  1  0
 11  8  2  0
 12  7  1  0
 13  4  1  0
 14  3  1  0
 15 20  1  0
 16 15  1  0
 17  1  1  0
 18  2  1  0
 19 16  1  0
 20  8  1  0
 21 17  1  0
 22 18  1  0
 23 10  1  0
 24  9  1  0
  9  5  2  0
 10  3  2  0
M  END
>  <ID>  (1409) 


>  <MOLENAME>  (1409) 
PYRITINOL

>  <therap>  (1409) 
cognition enhancer, nootropic

>  <ref>  (1409) 
Chem Pharm Bull 25:1335 (1977; Arzniem) Forsch 19:5 (1968)

>  <cas#>  (1409) 
1098-97-1

>  <source>  (1409) 
synthetic; pyrithioxin

>  <status>  (1409) 
INN, BAN, JAN

>  <tradename>  (1409) 
nan

>  <SMILES>  (1409) 
Cc1c(O)c(CO)c(CSSCc2cnc(C)c(O)c2CO)cn1

>  <standardized_failed>  (1409) 
False

$$$$

     RDKit          2D

 25 23  0  0  0  0  0  0  0  0999 V2000
    3.4000   -0.4625    0.0000 C   0  0  0  0  0  0  0  0  0  0  0  0
    2.9875    0.2500    0.0000 C   0  0  0  0  0  0  0  0  0  0  0  0
    2.9875   -1.1750    0.0000 O   0  0  0  0  0  0  0  0  0  0  0  0
    2.1667    0.2500    0.0000 C   0  0  0  0  0  0  0  0  0  0  0  0
    3.3917    0.9708    0.0000 N   0  0  0  0  0  0  0  0  0  0  0  0
    4.2167   -0.4625    0.0000 O   0  0  0  0  0  0  0  0  0  0  0  0
    5.4417    1.6833    0.0000 N   0  0  0  0  0  0  0  0  0  0  0  0
    7.9167    1.6250    0.0000 Cl  0  0  0  0  0  0  0  0  0  0  0  0
    2.4542    1.9708    0.0000 Cl  0  0  0  0  0  0  0  0  0  0  0  0
    4.2167    0.9708    0.0000 C   0  0  0  0  0  0  0  0  0  0  0  0
    4.6292   -1.1750    0.0000 C   0  0  0  0  0  0  0  0  0  0  0  0
    4.6250    1.6833    0.0000 C   0  0  0  0  0  0  0  0  0  0  0  0
    1.7542    0.9625    0.0000 C   0  0  0  0  0  0  0  0  0  0  0  0
    1.7542   -0.4625    0.0000 C   0  0  0  0  0  0  0  0  0  0  0  0
    5.8542    0.9708    0.0000 C   0  0  0  0  0  0  0  0  0  0  0  0
    5.8542    2.3958    0.0000 C   0  0  0  0  0  0  0  0  0  0  0  0
    5.4542   -1.1750    0.0000 C   0  0  0  0  0  0  0  0  0  0  0  0
    5.8667   -1.8875    0.0000 C   0  0  0  0  0  0  0  0  0  0  0  0
    6.6792    0.9708    0.0000 C   0  0  0  0  0  0  0  0  0  0  0  0
    6.6750    2.3958    0.0000 C   0  0  0  0  0  0  0  0  0  0  0  0
    6.6875   -1.8875    0.0000 C   0  0  0  0  0  0  0  0  0  0  0  0
    5.4542   -2.6000    0.0000 C   0  0  0  0  0  0  0  0  0  0  0  0
    0.9292    0.9583    0.0000 C   0  0  0  0  0  0  0  0  0  0  0  0
    0.9292   -0.4625    0.0000 C   0  0  0  0  0  0  0  0  0  0  0  0
    0.5167    0.2458    0.0000 C   0  0  0  0  0  0  0  0  0  0  0  0
  2  1  1  0
  3  1  2  0
  4  2  1  0
  5  2  1  0
  6  1  1  0
  7 12  1  0
 10  5  1  0
 11  6  1  0
 12 10  1  0
 13  4  2  0
 14  4  1  0
 15  7  1  0
 16  7  1  0
 17 11  1  0
 18 17  1  0
 19 15  1  0
 20 16  1  0
 21 18  1  0
 22 18  1  0
 23 13  1  0
 24 14  2  0
 25 24  1  0
 23 25  2  0
M  END
>  <ID>  (1410) 


>  <MOLENAME>  (1410) 
CAMYLOFINE DIHYDROCHLORIDE

>  <therap>  (1410) 
anticholinergic

>  <ref>  (1410) 
J Drug Target 18:589 (2010)

>  <cas#>  (1410) 
54-30-8

>  <source>  (1410) 
synthetic

>  <status>  (1410) 
INN, JAN

>  <tradename>  (1410) 
AVAFORTAN

>  <SMILES>  (1410) 
CCN(CC)CCNC(C(=O)OCCC(C)C)c1ccccc1

>  <standardized_failed>  (1410) 
False

$$$$

     RDKit          2D

 18 17  0  0  0  0  0  0  0  0999 V2000
    7.0125   -4.2542    0.0000 C   0  0  0  0  0  0  0  0  0  0  0  0
    7.0125   -3.4292    0.0000 O   0  0  0  0  0  0  0  0  0  0  0  0
    6.3042   -5.5042    0.0000 O   0  0  0  0  0  0  0  0  0  0  0  0
    6.3000   -4.6667    0.0000 C   0  0  0  0  0  0  0  0  0  0  0  0
    5.5875   -5.9292    0.0000 C   0  0  0  0  0  0  0  0  0  0  0  0
    4.1542   -6.7542    0.0000 C   0  0  0  0  0  0  0  0  0  0  0  0
    8.4375   -6.7292    0.0000 N   0  0  0  0  0  0  0  0  0  0  0  0
    7.7250   -4.6667    0.0000 O   0  0  0  0  0  0  0  0  0  0  0  0
    3.4375   -7.1667    0.0000 Cl  0  0  0  0  0  0  0  0  0  0  0  0
    9.5417   -6.4625    0.0000 Cl  0  0  0  0  0  0  0  0  0  0  0  0
    5.5875   -6.7542    0.0000 C   0  0  0  0  0  0  0  0  0  0  0  0
    4.8750   -5.5167    0.0000 C   0  0  0  0  0  0  0  0  0  0  0  0
    4.8750   -7.1667    0.0000 C   0  0  0  0  0  0  0  0  0  0  0  0
    4.1542   -5.9292    0.0000 C   0  0  0  0  0  0  0  0  0  0  0  0
    7.7250   -5.4917    0.0000 C   0  0  0  0  0  0  0  0  0  0  0  0
    8.4375   -5.9042    0.0000 C   0  0  0  0  0  0  0  0  0  0  0  0
    7.7250   -7.1542    0.0000 C   0  0  0  0  0  0  0  0  0  0  0  0
    9.1542   -7.1542    0.0000 C   0  0  0  0  0  0  0  0  0  0  0  0
  2  1  2  0
  3  4  1  0
  4  1  1  0
  5  3  1  0
  6 13  2  0
  7 16  1  0
  8  1  1  0
  9  6  1  0
 11  5  2  0
 12  5  1  0
 13 11  1  0
 14 12  2  0
 15  8  1  0
 16 15  1  0
 17  7  1  0
 18  7  1  0
 14  6  1  0
M  END
>  <ID>  (1411) 


>  <MOLENAME>  (1411) 
MECLOFENOXATE HYDROCHLORIDE

>  <therap>  (1411) 
nootropic

>  <ref>  (1411) 
Pharmacol Res 38:65 (1998)

>  <cas#>  (1411) 
51-68-3

>  <source>  (1411) 
synthetic

>  <status>  (1411) 
INN, BAN, JAN

>  <tradename>  (1411) 
nan

>  <SMILES>  (1411) 
CN(C)CCOC(=O)COc1ccc(Cl)cc1

>  <standardized_failed>  (1411) 
False

$$$$

     RDKit          2D

 29 29  0  0  0  0  0  0  0  0999 V2000
    6.7667   -4.3750    0.0000 N   0  0  0  0  0  0  0  0  0  0  0  0
    5.9667   -4.6000    0.0000 C   0  0  0  0  0  0  0  0  0  0  0  0
    6.9792   -5.1875    0.0000 C   0  0  0  0  0  0  0  0  0  0  0  0
    6.1792   -5.4000    0.0000 C   0  0  0  0  0  0  0  0  0  0  0  0
    7.3542   -3.7875    0.0000 C   0  0  0  0  0  0  0  0  0  0  0  0
    7.7917   -5.4000    0.0000 S   0  0  0  0  0  0  0  0  0  0  0  0
    8.1667   -4.0000    0.0000 C   0  0  0  0  0  0  0  0  0  0  0  0
    6.1292   -6.0792    0.0000 N   0  0  0  0  0  0  0  0  0  0  0  0
    7.1417   -2.9750    0.0000 C   0  0  0  0  0  0  0  0  0  0  0  0
    8.3792   -4.8125    0.0000 C   0  0  0  0  0  0  0  0  0  0  0  0
    2.5292   -7.3500    0.0000 C   0  0  0  0  0  0  0  0  0  0  0  0
    5.2417   -4.1875    0.0000 O   0  0  0  0  0  0  0  0  0  0  0  0
    5.4042   -6.5000    0.0000 C   0  0  0  0  0  0  0  0  0  0  0  0
    8.7542   -3.4125    0.0000 C   0  0  0  0  0  0  0  0  0  0  0  0
    9.7667   -4.4292    0.0000 C   0  0  0  0  0  0  0  0  0  0  0  0
    7.7292   -2.3875    0.0000 O   0  0  0  0  0  0  0  0  0  0  0  0
    6.3417   -2.7625    0.0000 O   0  0  0  0  0  0  0  0  0  0  0  0
    2.5292   -6.5250    0.0000 O   0  0  0  0  0  0  0  0  0  0  0  0
    9.5542   -3.6292    0.0000 O   0  0  0  0  0  0  0  0  0  0  0  0
    5.4042   -7.3292    0.0000 O   0  0  0  0  0  0  0  0  0  0  0  0
    9.1792   -5.0125    0.0000 O   0  0  0  0  0  0  0  0  0  0  0  0
    3.2542   -7.7625    0.0000 C   0  0  0  0  0  0  0  0  0  0  0  0
    1.8167   -7.7667    0.0000 O   0  0  0  0  0  0  0  0  0  0  0  0
    3.2542   -8.5875    0.0000 N   0  0  0  0  0  0  0  0  0  0  0  0
    8.9167   -1.9042    0.0000 Na  0  0  0  0  0 15  0  0  0  0  0  0
    4.6792   -6.0875    0.0000 C   0  0  0  0  0  0  0  0  0  0  0  0
    3.9667   -6.5042    0.0000 C   0  0  0  0  0  0  0  0  0  0  0  0
   10.5542   -4.6500    0.0000 C   0  0  0  0  0  0  0  0  0  0  0  0
    3.9667   -7.3500    0.0000 C   0  0  0  0  0  0  0  0  0  0  0  0
  2  1  1  0
  3  1  1  0
  4  3  1  0
  5  1  1  0
  6  3  1  0
  7  5  2  0
  4  8  1  6
  9  5  1  0
 10  7  1  0
 11 22  1  0
 12  2  2  0
 13  8  1  0
 14  7  1  0
 15 19  1  0
 16  9  1  0
 17  9  2  0
 18 11  2  0
 19 14  1  0
 20 13  2  0
 21 15  2  0
 22 29  1  0
 23 11  1  0
 24 22  1  0
 26 13  1  0
 27 26  1  0
 28 15  1  0
 29 27  1  0
  4  2  1  0
 10  6  1  0
M  CHG  2  16  -1  25   1
M  END
>  <ID>  (1412) 


>  <MOLENAME>  (1412) 
CEPHALOSPORIN C SODIUM

>  <therap>  (1412) 
antibacterial

>  <ref>  (1412) 
Br J Pharmacol 16:170 (1961); Q Rev Chem Soc 21:231 (1967)

>  <cas#>  (1412) 
61-24-5

>  <source>  (1412) 
Cephalosprium acremonium

>  <status>  (1412) 
BAN

>  <tradename>  (1412) 
nan

>  <SMILES>  (1412) 
CC(=O)OCC1=C(C(=O)O)N2C(=O)[C@@H](NC(=O)CCCC(N)C(=O)O)C2SC1

>  <standardized_failed>  (1412) 
False

$$$$

     RDKit          2D

 61 64  0  0  0  0  0  0  0  0999 V2000
    7.9292   -5.1042    0.0000 C   0  0  0  0  0  0  0  0  0  0  0  0
    8.6417   -5.5167    0.0000 C   0  0  0  0  0  0  0  0  0  0  0  0
    8.6417   -6.3417    0.0000 C   0  0  0  0  0  0  0  0  0  0  0  0
    0.7917   -4.9792    0.0000 C   0  0  0  0  0  0  0  0  0  0  0  0
    0.0667   -5.3917    0.0000 C   0  0  0  0  0  0  0  0  0  0  0  0
    0.7917   -4.1542    0.0000 C   0  0  0  0  0  0  0  0  0  0  0  0
    7.2042   -5.5167    0.0000 O   0  0  0  0  0  0  0  0  0  0  0  0
    7.0042   -3.6000    0.0000 C   0  0  0  0  0  0  0  0  0  0  0  0
    7.9292   -4.2792    0.0000 O   0  0  0  0  0  0  0  0  0  0  0  0
    0.0667   -3.7417    0.0000 O   0  0  0  0  0  0  0  0  0  0  0  0
    7.9292   -6.7542    0.0000 C   0  0  0  0  0  0  0  0  0  0  0  0
   -0.6458   -4.9792    0.0000 C   0  0  0  0  0  0  0  0  0  0  0  0
    6.1500   -3.7125    0.0000 C   0  0  0  0  0  0  0  0  0  0  0  0
    4.4042   -4.9000    0.0000 C   0  0  0  0  0  0  0  0  0  0  0  0
    3.8417   -4.3667    0.0000 O   0  0  0  0  0  0  0  0  0  0  0  0
    5.2750   -4.9000    0.0000 C   0  0  0  0  0  0  0  0  0  0  0  0
    7.2042   -6.3500    0.0000 C   0  0  0  0  0  0  0  0  0  0  0  0
   -0.6458   -4.1542    0.0000 C   0  0  0  0  0  0  0  0  0  0  0  0
    6.0042   -4.3917    0.0000 C   0  0  0  0  0  0  0  0  0  0  0  0
    7.5750   -2.9500    0.0000 C   0  0  0  0  0  0  0  0  0  0  0  0
    9.7500   -3.2042    0.0000 N   0  0  0  0  0  0  0  0  0  0  0  0
    3.0250   -3.5542    0.0000 C   0  0  0  0  0  0  0  0  0  0  0  0
    3.0167   -2.8792    0.0000 C   0  0  0  0  0  0  0  0  0  0  0  0
    5.0417   -1.6000    0.0000 C   0  0  0  0  0  0  0  0  0  0  0  0
    5.9792   -1.5917    0.0000 C   0  0  0  0  0  0  0  0  0  0  0  0
    3.8417   -3.5542    0.0000 C   0  0  0  0  0  0  0  0  0  0  0  0
    3.6292   -2.2000    0.0000 C   0  0  0  0  0  0  0  0  0  0  0  0
    7.5750   -2.2875    0.0000 C   0  0  0  0  0  0  0  0  0  0  0  0
    4.5417   -2.2167    0.0000 C   0  0  0  0  0  0  0  0  0  0  0  0
    1.5042   -3.7417    0.0000 O   0  0  0  0  0  0  0  0  0  0  0  0
    9.3542   -6.7542    0.0000 N   0  0  0  0  0  0  0  0  0  0  0  0
    7.1167   -1.5917    0.0000 C   0  0  0  0  0  0  0  0  0  0  0  0
    2.2250   -3.3375    0.0000 C   0  0  0  0  0  0  0  0  0  0  0  0
    4.0292   -5.6500    0.0000 O   0  0  0  0  0  0  0  0  0  0  0  0
    8.3250   -3.3125    0.0000 C   0  0  0  0  0  0  0  0  0  0  0  0
    6.0125   -0.7250    0.0000 O   0  0  0  0  0  0  0  0  0  0  0  0
   10.4292   -2.7417    0.0000 C   0  0  0  0  0  0  0  0  0  0  0  0
    9.8042   -4.0292    0.0000 C   0  0  0  0  0  0  0  0  0  0  0  0
    9.0042   -2.8417    0.0000 C   0  0  0  0  0  0  0  0  0  0  0  0
    9.4042   -5.2042    0.0000 O   0  0  0  0  0  0  0  0  0  0  0  0
    1.5042   -5.3917    0.0000 O   0  0  0  0  0  0  0  0  0  0  0  0
    0.0750   -6.2250    0.0000 O   0  0  0  0  0  0  0  0  0  0  0  0
   -1.3583   -5.3917    0.0000 O   0  0  0  0  0  0  0  0  0  0  0  0
    7.9292   -7.5875    0.0000 O   0  0  0  0  0  0  0  0  0  0  0  0
   10.5417   -4.3792    0.0000 C   0  0  0  0  0  0  0  0  0  0  0  0
   11.1667   -3.1042    0.0000 C   0  0  0  0  0  0  0  0  0  0  0  0
   11.2292   -3.9292    0.0000 C   0  0  0  0  0  0  0  0  0  0  0  0
    6.5417   -4.9667    0.0000 O   0  0  0  0  0  0  0  0  0  0  0  0
    5.7417   -3.0875    0.0000 C   0  0  0  0  0  0  0  0  0  0  0  0
   -1.3583   -3.7417    0.0000 C   0  0  0  0  0  0  0  0  0  0  0  0
    6.4917   -6.7667    0.0000 C   0  0  0  0  0  0  0  0  0  0  0  0
    3.1167   -4.0542    0.0000 C   0  0  0  0  0  0  0  0  0  0  0  0
    3.4167   -1.4417    0.0000 C   0  0  0  0  0  0  0  0  0  0  0  0
    9.3542   -7.5792    0.0000 C   0  0  0  0  0  0  0  0  0  0  0  0
   10.0667   -6.3417    0.0000 C   0  0  0  0  0  0  0  0  0  0  0  0
    7.4792   -0.9750    0.0000 C   0  0  0  0  0  0  0  0  0  0  0  0
   11.8542   -2.6417    0.0000 C   0  0  0  0  0  0  0  0  0  0  0  0
   10.6042   -5.2125    0.0000 C   0  0  0  0  0  0  0  0  0  0  0  0
    1.5042   -6.2167    0.0000 C   0  0  0  0  0  0  0  0  0  0  0  0
    0.7875   -6.6375    0.0000 C   0  0  0  0  0  0  0  0  0  0  0  0
    3.1292   -4.9375    0.0000 C   0  0  0  0  0  0  0  0  0  0  0  0
  2  1  1  0
  3  2  1  0
  4  6  1  0
  5  4  1  0
  6 30  1  1
  7  1  1  0
  8  9  1  6
  1  9  1  1
 10  6  1  0
 11 17  1  0
 12 18  1  0
 13  8  1  0
 14 16  1  0
 15 14  1  0
 16 19  1  0
 17  7  1  0
 18 10  1  0
 19 13  1  0
 20  8  1  0
 21 39  1  0
 22 26  1  0
 23 27  2  0
 24 25  1  0
 25 32  1  0
 26 15  1  0
 27 29  1  0
 28 20  1  0
 29 24  2  0
 30 33  1  0
  3 31  1  1
 32 28  1  0
 22 33  1  1
 34 14  2  0
 20 35  1  6
 36 25  2  0
 37 21  1  0
 38 21  1  0
 39 35  1  0
  2 40  1  6
  4 41  1  6
  5 42  1  6
 12 43  1  6
 11 44  1  6
 45 38  1  0
 46 37  1  0
 47 45  1  0
 19 48  1  6
 13 49  1  6
 18 50  1  1
 17 51  1  1
 26 52  1  6
 53 27  1  0
 54 31  1  0
 55 31  1  0
 32 56  1  6
 46 57  1  6
 45 58  1  6
 59 41  1  0
 60 42  1  0
 61 52  1  0
  3 11  1  0
 47 46  1  0
 23 22  1  0
 12  5  1  0
M  END
>  <ID>  (1413) 


>  <MOLENAME>  (1413) 
TILMICOSIN

>  <therap>  (1413) 
antibacterial

>  <ref>  (1413) 
J Am Vet Med Assoc 202:273 (1993)

>  <cas#>  (1413) 
108050-54-0

>  <source>  (1413) 
semisynthetic; LY-177370

>  <status>  (1413) 
USP, INN, BAN

>  <tradename>  (1413) 
MICOTIL

>  <SMILES>  (1413) 
CC[C@@H]1OC(=O)C[C@@H](O)[C@H](C)[C@@H](O[C@@H]2O[C@H](C)[C@@H](O)[C@H](N(C)C)[C@H]2O)[C@@H](CCN2C[C@@H](C)C[C@@H](C)C2)C[C@@H](C)C(=O)/C=C/C(C)=C\[C@@H]1CO[C@@H]1O[C@H](C)[C@@H](O)[C@@H](OC)[C@H]1OC

>  <standardized_failed>  (1413) 
False

$$$$

     RDKit          2D

 12 11  0  0  0  0  0  0  0  0999 V2000
    6.1917   -4.6417    0.0000 C   0  0  0  0  0  0  0  0  0  0  0  0
    6.8417   -5.0167    0.0000 C   0  0  0  0  0  0  0  0  0  0  0  0
    5.5417   -5.0167    0.0000 C   0  0  0  0  0  0  0  0  0  0  0  0
    6.1917   -3.8917    0.0000 C   0  0  0  0  0  0  0  0  0  0  0  0
    6.1917   -6.1417    0.0000 C   0  0  0  0  0  0  0  0  0  0  0  0
    6.8417   -5.7667    0.0000 C   0  0  0  0  0  0  0  0  0  0  0  0
    5.5417   -5.7667    0.0000 C   0  0  0  0  0  0  0  0  0  0  0  0
    7.9167   -3.4917    0.0000 Cl  0  0  0  0  0  0  0  0  0  0  0  0
    6.8292   -2.7667    0.0000 N   0  0  0  0  0  0  0  0  0  0  0  0
    5.5292   -3.5167    0.0000 O   0  0  0  0  0  0  0  0  0  0  0  0
    6.1917   -6.8917    0.0000 O   0  0  0  0  0  0  0  0  0  0  0  0
    6.8292   -3.5167    0.0000 C   0  0  0  0  0  0  0  0  0  0  0  0
  2  1  2  0
  3  1  1  0
  4  1  1  0
  5  7  1  0
  6  2  1  0
  7  3  2  0
  9 12  1  0
 10  4  1  0
 11  5  1  0
 12  4  1  0
  5  6  2  0
M  END
>  <ID>  (1414) 


>  <MOLENAME>  (1414) 
OCTOPAMINE HYDROCHLORIDE

>  <therap>  (1414) 
adrenergic agonist

>  <ref>  (1414) 
Ann. Rev. Entomol. (2005), 50, 447-477; Arch. Insect Biochem. Physiol. (2003), 54(1), 1-13; Neurochem. Res. (1993), 18(8), 869-74

>  <cas#>  (1414) 
104-14-3

>  <source>  (1414) 
salivary glands of Octopus vulgaris; also Capsicum frutescens & Cyperus spp; ND-50

>  <status>  (1414) 
INN

>  <tradename>  (1414) 
nan

>  <SMILES>  (1414) 
NCC(O)c1ccc(O)cc1

>  <standardized_failed>  (1414) 
False

$$$$

     RDKit          2D

 24 24  0  0  0  0  0  0  0  0999 V2000
    5.4625   -6.3792    0.0000 C   0  0  0  0  0  0  0  0  0  0  0  0
    4.7500   -5.9667    0.0000 C   0  0  0  0  0  0  0  0  0  0  0  0
    5.4625   -7.1917    0.0000 O   0  0  0  0  0  0  0  0  0  0  0  0
    4.7500   -5.1417    0.0000 C   0  0  0  0  0  0  0  0  0  0  0  0
    4.0375   -6.3792    0.0000 C   0  0  0  0  0  0  0  0  0  0  0  0
    6.1750   -5.9667    0.0000 O   0  0  0  0  0  0  0  0  0  0  0  0
    8.3250   -6.3667    0.0000 N   0  0  0  0  0  0  0  0  0  0  0  0
    8.3250   -5.0250    0.0000 Cl  0  0  0  0  0  0  0  0  0  0  0  0
    6.8917   -6.3792    0.0000 C   0  0  0  0  0  0  0  0  0  0  0  0
    7.6042   -5.9542    0.0000 C   0  0  0  0  0  0  0  0  0  0  0  0
    4.0375   -4.7292    0.0000 C   0  0  0  0  0  0  0  0  0  0  0  0
    5.4625   -4.7292    0.0000 C   0  0  0  0  0  0  0  0  0  0  0  0
    9.0375   -5.9542    0.0000 C   0  0  0  0  0  0  0  0  0  0  0  0
    8.3250   -7.1917    0.0000 C   0  0  0  0  0  0  0  0  0  0  0  0
    4.0375   -7.2042    0.0000 C   0  0  0  0  0  0  0  0  0  0  0  0
    3.3167   -5.9667    0.0000 C   0  0  0  0  0  0  0  0  0  0  0  0
    9.7500   -6.3667    0.0000 C   0  0  0  0  0  0  0  0  0  0  0  0
    9.0375   -7.6042    0.0000 C   0  0  0  0  0  0  0  0  0  0  0  0
    4.0375   -3.9042    0.0000 C   0  0  0  0  0  0  0  0  0  0  0  0
    5.4625   -3.9042    0.0000 C   0  0  0  0  0  0  0  0  0  0  0  0
    2.6042   -6.3667    0.0000 C   0  0  0  0  0  0  0  0  0  0  0  0
    3.3125   -7.6167    0.0000 C   0  0  0  0  0  0  0  0  0  0  0  0
    2.6000   -7.1917    0.0000 C   0  0  0  0  0  0  0  0  0  0  0  0
    4.7500   -3.4917    0.0000 C   0  0  0  0  0  0  0  0  0  0  0  0
  2  1  1  0
  3  1  2  0
  4  2  1  0
  5  2  1  0
  6  1  1  0
  7 10  1  0
  9  6  1  0
 10  9  1  0
 11  4  2  0
 12  4  1  0
 13  7  1  0
 14  7  1  0
 15  5  1  0
 16  5  1  0
 17 13  1  0
 18 14  1  0
 19 11  1  0
 20 12  2  0
 21 16  1  0
 22 15  1  0
 23 22  1  0
 24 19  2  0
 21 23  1  0
 20 24  1  0
M  END
>  <ID>  (1415) 


>  <MOLENAME>  (1415) 
DROFENINE HYDROCHLORIDE

>  <therap>  (1415) 
antispasmodic

>  <ref>  (1415) 
Arzneim. Forsch. (1961), 11, 1119-26; Acta Pharmacol. Toxicol. (1955), 11, 148-55; Helv. Chim. Acta (1941), 24, 36-40E.

>  <cas#>  (1415) 
1679-76-1

>  <source>  (1415) 
synthetic

>  <status>  (1415) 
INN

>  <tradename>  (1415) 
nan

>  <SMILES>  (1415) 
CCN(CC)CCOC(=O)C(c1ccccc1)C1CCCCC1

>  <standardized_failed>  (1415) 
False

$$$$

     RDKit          2D

 30 31  0  0  0  0  0  0  0  0999 V2000
    4.3292   -4.8417    0.0000 C   0  0  0  0  0  0  0  0  0  0  0  0
    4.7417   -5.5417    0.0000 C   0  0  0  0  0  0  0  0  0  0  0  0
    4.7417   -4.1292    0.0000 C   0  0  0  0  0  0  0  0  0  0  0  0
    3.5167   -4.8292    0.0000 C   0  0  0  0  0  0  0  0  0  0  0  0
    4.3292   -3.4167    0.0000 C   0  0  0  0  0  0  0  0  0  0  0  0
    3.5042   -3.4167    0.0000 C   0  0  0  0  0  0  0  0  0  0  0  0
    3.1042   -4.1292    0.0000 C   0  0  0  0  0  0  0  0  0  0  0  0
    4.3292   -6.2542    0.0000 N   0  0  0  0  0  0  0  0  0  0  0  0
    7.2167   -6.9667    0.0000 C   0  0  0  0  0  0  0  0  0  0  0  0
    5.5667   -5.5417    0.0000 C   0  0  0  0  0  0  0  0  0  0  0  0
    6.8042   -7.6792    0.0000 C   0  0  0  0  0  0  0  0  0  0  0  0
    6.8042   -6.2542    0.0000 C   0  0  0  0  0  0  0  0  0  0  0  0
    5.9792   -6.2542    0.0000 C   0  0  0  0  0  0  0  0  0  0  0  0
    5.9792   -7.6792    0.0000 C   0  0  0  0  0  0  0  0  0  0  0  0
    5.5667   -6.9667    0.0000 C   0  0  0  0  0  0  0  0  0  0  0  0
    3.5042   -6.2542    0.0000 C   0  0  0  0  0  0  0  0  0  0  0  0
    4.7417   -2.7042    0.0000 O   0  0  0  0  0  0  0  0  0  0  0  0
    3.0917   -2.7042    0.0000 O   0  0  0  0  0  0  0  0  0  0  0  0
    8.0417   -6.9667    0.0000 O   0  0  0  0  0  0  0  0  0  0  0  0
    3.4875   -7.3375    0.0000 Cl  0  0  0  0  0  0  0  0  0  0  0  0
    7.2167   -8.4042    0.0000 O   0  0  0  0  0  0  0  0  0  0  0  0
    3.1042   -5.5417    0.0000 C   0  0  0  0  0  0  0  0  0  0  0  0
    3.5042   -1.9917    0.0000 C   0  0  0  0  0  0  0  0  0  0  0  0
    5.5667   -2.6917    0.0000 C   0  0  0  0  0  0  0  0  0  0  0  0
    8.4542   -7.6792    0.0000 C   0  0  0  0  0  0  0  0  0  0  0  0
    6.8042   -9.1167    0.0000 C   0  0  0  0  0  0  0  0  0  0  0  0
    3.0917   -1.2792    0.0000 C   0  0  0  0  0  0  0  0  0  0  0  0
    9.2792   -7.6667    0.0000 C   0  0  0  0  0  0  0  0  0  0  0  0
    5.9792   -1.9792    0.0000 C   0  0  0  0  0  0  0  0  0  0  0  0
    7.2167   -9.8292    0.0000 C   0  0  0  0  0  0  0  0  0  0  0  0
  2  1  1  0
  3  1  2  0
  4  1  1  0
  5  3  1  0
  6  7  1  0
  7  4  2  0
  8  2  2  0
  9 12  2  0
 10  2  1  0
 11 14  2  0
 12 13  1  0
 13 10  1  0
 14 15  1  0
 15 13  2  0
 16 22  2  0
 17  5  1  0
 18  6  1  0
 19  9  1  0
 21 11  1  0
 22  4  1  0
 23 18  1  0
 24 17  1  0
 25 19  1  0
 26 21  1  0
 27 23  1  0
 28 25  1  0
 29 24  1  0
 30 26  1  0
 16  8  1  0
  5  6  2  0
 11  9  1  0
M  END
>  <ID>  (1416) 


>  <MOLENAME>  (1416) 
ETHAVERINE HYDROCHLORIDE

>  <therap>  (1416) 
antispasmodic

>  <ref>  (1416) 
Biochem. Pharmacol. (1964), 13(2), 153-8; Arch. Int. Pharmacodyn. Ther. (1960), 126, 386-92. ; Therapie (1954), 9, 64-7.

>  <cas#>  (1416) 
985-13-7, 486-47-5 [ethaverine]

>  <source>  (1416) 
synthetic

>  <status>  (1416) 
INN

>  <tradename>  (1416) 
ETHAQUIN

>  <SMILES>  (1416) 
CCOc1ccc(Cc2nccc3cc(OCC)c(OCC)cc23)cc1OCC

>  <standardized_failed>  (1416) 
False

$$$$

     RDKit          2D

 24 24  0  0  0  0  0  0  0  0999 V2000
    5.7208   -2.0792    0.0000 C   0  0  0  0  0  0  0  0  0  0  0  0
    7.1542   -1.2542    0.0000 C   0  0  0  0  0  0  0  0  0  0  0  0
    5.7208   -2.9042    0.0000 C   0  0  0  0  0  0  0  0  0  0  0  0
    7.8667   -1.6708    0.0000 C   0  0  0  0  0  0  0  0  0  0  0  0
    8.5875   -1.2625    0.0000 C   0  0  0  0  0  0  0  0  0  0  0  0
    5.0000   -3.3208    0.0000 C   0  0  0  0  0  0  0  0  0  0  0  0
    5.0000   -1.6667    0.0000 O   0  0  0  0  0  0  0  0  0  0  0  0
    6.4375   -1.6667    0.0000 O   0  0  0  0  0  0  0  0  0  0  0  0
    7.8750   -0.0167    0.0000 O   0  0  0  0  0  0  0  0  0  0  0  0
    8.5917   -0.4333    0.0000 C   0  0  0  0  0  0  0  0  0  0  0  0
    4.2833   -2.9042    0.0000 C   0  0  0  0  0  0  0  0  0  0  0  0
    7.1583   -0.4292    0.0000 C   0  0  0  0  0  0  0  0  0  0  0  0
    4.2833   -2.0792    0.0000 C   0  0  0  0  0  0  0  0  0  0  0  0
    6.4375   -3.3208    0.0000 O   0  0  0  0  0  0  0  0  0  0  0  0
    9.3000   -1.6792    0.0000 O   0  0  0  0  0  0  0  0  0  0  0  0
    7.8667   -2.5000    0.0000 O   0  0  0  0  0  0  0  0  0  0  0  0
    5.0042   -4.1500    0.0000 O   0  0  0  0  0  0  0  0  0  0  0  0
    3.5708   -3.3208    0.0000 O   0  0  0  0  0  0  0  0  0  0  0  0
    9.3083   -0.0208    0.0000 O   0  0  0  0  0  0  0  0  0  0  0  0
    6.4458   -0.0125    0.0000 C   0  0  0  0  0  0  0  0  0  0  0  0
    3.5708   -1.6667    0.0000 C   0  0  0  0  0  0  0  0  0  0  0  0
    2.9375   -2.2000    0.0000 O   0  0  0  0  0  0  0  0  0  0  0  0
    5.8125   -0.5458    0.0000 O   0  0  0  0  0  0  0  0  0  0  0  0
   10.5833   -1.3417    0.0000 O   0  0  0  0  0  0  0  0  0  0  0  0
  2  8  1  6
  3  1  1  0
  4  2  1  0
  5  4  1  0
  6  3  1  0
  7  1  1  0
  1  8  1  1
  9 12  1  0
 10  9  1  0
 11  6  1  0
 12  2  1  0
 13  7  1  0
  3 14  1  6
  5 15  1  6
  4 16  1  1
  6 17  1  1
 11 18  1  1
 10 19  1  6
 12 20  1  1
 13 21  1  1
 22 21  1  0
 23 20  1  0
 13 11  1  0
  5 10  1  0
M  END
>  <ID>  (1417) 


>  <MOLENAME>  (1417) 
LACTOSE MONOHYDRATE

>  <therap>  (1417) 
nutrient, pharmaceutic aid

>  <ref>  (1417) 
Chem Rev 2:85 (1926); Anal Profiles Drug Subs 20:369 (1991)

>  <cas#>  (1417) 
62-42-3

>  <source>  (1417) 
mamalian milk, widespread in nature

>  <status>  (1417) 
NF

>  <tradename>  (1417) 
nan

>  <SMILES>  (1417) 
OC[C@H]1O[C@H](O)[C@H](O)[C@@H](O)[C@@H]1O[C@@H]1O[C@H](CO)[C@H](O)[C@H](O)[C@H]1O

>  <standardized_failed>  (1417) 
False

$$$$

     RDKit          2D

 20 20  0  0  0  0  0  0  0  0999 V2000
    3.4000   -5.1958    0.0000 C   0  0  0  0  0  0  0  0  0  0  0  0
    3.3958   -4.3708    0.0000 C   0  0  0  0  0  0  0  0  0  0  0  0
    2.6792   -5.6125    0.0000 N   0  0  0  0  0  0  0  0  0  0  0  0
    1.9667   -4.3750    0.0000 N   0  0  0  0  0  0  0  0  0  0  0  0
    1.9667   -5.2000    0.0000 C   0  0  0  0  0  0  0  0  0  0  0  0
    2.6792   -3.9583    0.0000 C   0  0  0  0  0  0  0  0  0  0  0  0
    4.1875   -5.4458    0.0000 N   0  0  0  0  0  0  0  0  0  0  0  0
    4.1792   -4.1083    0.0000 N   0  0  0  0  0  0  0  0  0  0  0  0
    4.6708   -4.7750    0.0000 C   0  0  0  0  0  0  0  0  0  0  0  0
    1.2500   -5.6125    0.0000 O   0  0  0  0  0  0  0  0  0  0  0  0
    2.6750   -3.1333    0.0000 O   0  0  0  0  0  0  0  0  0  0  0  0
    2.6833   -6.4375    0.0000 C   0  0  0  0  0  0  0  0  0  0  0  0
    5.4958   -4.7708    0.0000 Br  0  0  0  0  0  0  0  0  0  0  0  0
    1.2542   -3.9625    0.0000 C   0  0  0  0  0  0  0  0  0  0  0  0
   -0.8500   -4.4875    0.0000 C   0  0  0  0  0  0  0  0  0  0  0  0
   -0.8583   -5.3125    0.0000 N   0  0  0  0  0  0  0  0  0  0  0  0
    0.5750   -4.4875    0.0000 O   0  0  0  0  0  0  0  0  0  0  0  0
   -0.1375   -4.9000    0.0000 C   0  0  0  0  0  0  0  0  0  0  0  0
   -0.8500   -3.6625    0.0000 C   0  0  0  0  0  0  0  0  0  0  0  0
   -1.5625   -4.9000    0.0000 C   0  0  0  0  0  0  0  0  0  0  0  0
  2  1  2  0
  3  1  1  0
  4  6  1  0
  5  3  1  0
  6  2  1  0
  7  1  1  0
  8  2  1  0
  9  7  2  0
 10  5  2  0
 11  6  2  0
 12  3  1  0
 13  9  1  0
 14  4  1  0
 16 15  1  0
 17 18  1  0
 18 15  1  0
 19 15  1  0
 20 15  1  0
  8  9  1  0
  5  4  1  0
M  END
>  <ID>  (1418) 


>  <MOLENAME>  (1418) 
PAMABROM

>  <therap>  (1418) 
diuretic

>  <ref>  (1418) 
Am Heart J 46:288 (1953); J Drugs Dermatol 5:284 (2006)

>  <cas#>  (1418) 
606-04-2

>  <source>  (1418) 
synthetic

>  <status>  (1418) 
USP

>  <tradename>  (1418) 
DIUREX

>  <SMILES>  (1418) 
Cn1c(=O)c2c(nc(Br)[nH]2)n(C)c1=O

>  <standardized_failed>  (1418) 
False

$$$$

     RDKit          2D

 20 20  0  0  0  0  0  0  0  0999 V2000
   -1.9750   -0.7500    0.0000 C   0  0  0  0  0  0  0  0  0  0  0  0
   -1.2708   -1.1542    0.0000 C   0  0  0  0  0  0  0  0  0  0  0  0
   -2.6958   -1.1542    0.0000 C   0  0  0  0  0  0  0  0  0  0  0  0
   -1.9833    0.0750    0.0000 C   0  0  0  0  0  0  0  0  0  0  0  0
   -1.2708   -1.9875    0.0000 C   0  0  0  0  0  0  0  0  0  0  0  0
   -2.7000   -1.9750    0.0000 C   0  0  0  0  0  0  0  0  0  0  0  0
   -1.9875   -2.3917    0.0000 C   0  0  0  0  0  0  0  0  0  0  0  0
   -2.8083    0.0750    0.0000 O   0  0  0  0  0  0  0  0  0  0  0  0
   -1.4000    0.6625    0.0000 N   0  0  0  0  0  0  0  0  0  0  0  0
   -1.9958   -3.2167    0.0000 N   0  0  0  0  0  0  0  0  0  0  0  0
   -3.4208   -2.3792    0.0000 Br  0  0  0  0  0  0  0  0  0  0  0  0
   -0.5500   -0.7500    0.0000 O   0  0  0  0  0  0  0  0  0  0  0  0
    0.7792    0.8250    0.0000 N   0  0  0  0  0  0  0  0  0  0  0  0
   -0.6000    0.4500    0.0000 C   0  0  0  0  0  0  0  0  0  0  0  0
   -0.0208    1.0333    0.0000 C   0  0  0  0  0  0  0  0  0  0  0  0
    1.3542    1.4083    0.0000 C   0  0  0  0  0  0  0  0  0  0  0  0
    0.9917    0.0333    0.0000 C   0  0  0  0  0  0  0  0  0  0  0  0
    0.1625   -1.1667    0.0000 C   0  0  0  0  0  0  0  0  0  0  0  0
    2.1542    1.1958    0.0000 C   0  0  0  0  0  0  0  0  0  0  0  0
    1.7917   -0.1792    0.0000 C   0  0  0  0  0  0  0  0  0  0  0  0
  2  1  2  0
  3  1  1  0
  4  1  1  0
  5  2  1  0
  6  3  2  0
  7  6  1  0
  8  4  2  0
  9  4  1  0
 10  7  1  0
 11  6  1  0
 12  2  1  0
 13 15  1  0
 14  9  1  0
 15 14  1  0
 16 13  1  0
 17 13  1  0
 18 12  1  0
 19 16  1  0
 20 17  1  0
  7  5  2  0
M  END
>  <ID>  (1419) 


>  <MOLENAME>  (1419) 
BROMOPRIDE

>  <therap>  (1419) 
antiemetic

>  <ref>  (1419) 
Fortschr Med 97:883 (1979); Arzneim Forsch 33:453 (1983)

>  <cas#>  (1419) 
4093-35-0

>  <source>  (1419) 
synthetic

>  <status>  (1419) 
INN

>  <tradename>  (1419) 
EMEPRIDE

>  <SMILES>  (1419) 
CCN(CC)CCNC(=O)c1c(OC)cc(N)c(Br)c1

>  <standardized_failed>  (1419) 
False

$$$$

     RDKit          2D

 22 24  0  0  0  0  0  0  0  0999 V2000
    2.7042   -3.8542    0.0000 C   0  0  0  0  0  0  0  0  0  0  0  0
    4.8417   -2.6125    0.0000 N   0  0  0  0  0  0  0  0  0  0  0  0
    4.1375   -3.0292    0.0000 C   0  0  0  0  0  0  0  0  0  0  0  0
    4.1375   -3.8542    0.0000 C   0  0  0  0  0  0  0  0  0  0  0  0
    3.4167   -4.2667    0.0000 C   0  0  0  0  0  0  0  0  0  0  0  0
    5.5625   -3.0167    0.0000 C   0  0  0  0  0  0  0  0  0  0  0  0
    3.4167   -2.6167    0.0000 N   0  0  0  0  0  0  0  0  0  0  0  0
    2.7042   -3.0292    0.0000 C   0  0  0  0  0  0  0  0  0  0  0  0
    5.5667   -3.8500    0.0000 N   0  0  0  0  0  0  0  0  0  0  0  0
    1.9917   -4.2667    0.0000 C   0  0  0  0  0  0  0  0  0  0  0  0
    6.2750   -2.6042    0.0000 N   0  0  0  0  0  0  0  0  0  0  0  0
    4.8542   -4.2667    0.0000 C   0  0  0  0  0  0  0  0  0  0  0  0
    3.4250   -5.0917    0.0000 O   0  0  0  0  0  0  0  0  0  0  0  0
    7.7000   -1.7750    0.0000 N   0  0  0  0  0  0  0  0  0  0  0  0
    1.9917   -5.0917    0.0000 O   0  0  0  0  0  0  0  0  0  0  0  0
    1.2792   -3.8542    0.0000 O   0  0  0  0  0  0  0  0  0  0  0  0
    3.4167   -1.7917    0.0000 C   0  0  0  0  0  0  0  0  0  0  0  0
    6.2667   -1.7792    0.0000 C   0  0  0  0  0  0  0  0  0  0  0  0
    6.9875   -3.0167    0.0000 C   0  0  0  0  0  0  0  0  0  0  0  0
    7.7000   -2.6000    0.0000 C   0  0  0  0  0  0  0  0  0  0  0  0
    6.9792   -1.3667    0.0000 C   0  0  0  0  0  0  0  0  0  0  0  0
    4.1292   -1.3792    0.0000 C   0  0  0  0  0  0  0  0  0  0  0  0
  2  3  2  0
  3  7  1  0
  4  5  1  0
  5  1  1  0
  6  2  1  0
  7  8  1  0
  8  1  2  0
  9 12  1  0
 10  1  1  0
 11  6  1  0
 12  4  2  0
 13  5  2  0
 14 20  1  0
 15 10  2  0
 16 10  1  0
 17  7  1  0
 18 11  1  0
 19 11  1  0
 20 19  1  0
 21 18  1  0
 22 17  1  0
  3  4  1  0
  9  6  2  0
 21 14  1  0
M  END
>  <ID>  (1420) 


>  <MOLENAME>  (1420) 
PIPEMIDIC ACID

>  <therap>  (1420) 
antibacterial

>  <ref>  (1420) 
Farmaco Ed Prat 30:252 (1974); Antimicrob Agents Chemother 7:441 (1975)

>  <cas#>  (1420) 
51940-44-4

>  <source>  (1420) 
synthetic; 1489-RB

>  <status>  (1420) 
INN, BAN, JAN

>  <tradename>  (1420) 
PIPEDAC

>  <SMILES>  (1420) 
CCn1cc(C(=O)O)c(=O)c2cnc(N3CCNCC3)nc21

>  <standardized_failed>  (1420) 
False

$$$$

     RDKit          2D

 27 29  0  0  0  0  0  0  0  0999 V2000
    4.2542   -3.2292    0.0000 C   0  0  0  0  0  0  0  0  0  0  0  0
    3.5375   -3.6417    0.0000 C   0  0  0  0  0  0  0  0  0  0  0  0
    2.8167   -3.2292    0.0000 C   0  0  0  0  0  0  0  0  0  0  0  0
    4.2542   -2.4042    0.0000 C   0  0  0  0  0  0  0  0  0  0  0  0
    3.5375   -1.9875    0.0000 C   0  0  0  0  0  0  0  0  0  0  0  0
    2.8250   -2.4042    0.0000 C   0  0  0  0  0  0  0  0  0  0  0  0
    4.9667   -3.6417    0.0000 C   0  0  0  0  0  0  0  0  0  0  0  0
    2.1042   -3.6417    0.0000 C   0  0  0  0  0  0  0  0  0  0  0  0
    4.9667   -1.9917    0.0000 C   0  0  0  0  0  0  0  0  0  0  0  0
    5.6792   -2.4000    0.0000 C   0  0  0  0  0  0  0  0  0  0  0  0
    6.3917   -1.9875    0.0000 C   0  0  0  0  0  0  0  0  0  0  0  0
    5.6792   -3.2292    0.0000 C   0  0  0  0  0  0  0  0  0  0  0  0
    4.9667   -4.4667    0.0000 O   0  0  0  0  0  0  0  0  0  0  0  0
    2.1125   -4.4667    0.0000 O   0  0  0  0  0  0  0  0  0  0  0  0
    5.6792   -4.8792    0.0000 C   0  0  0  0  0  0  0  0  0  0  0  0
    1.4000   -4.8875    0.0000 C   0  0  0  0  0  0  0  0  0  0  0  0
    3.5292   -4.4667    0.0000 O   0  0  0  0  0  0  0  0  0  0  0  0
    3.5375   -1.1625    0.0000 O   0  0  0  0  0  0  0  0  0  0  0  0
    6.3875   -1.1625    0.0000 O   0  0  0  0  0  0  0  0  0  0  0  0
    1.4000   -5.7125    0.0000 O   0  0  0  0  0  0  0  0  0  0  0  0
    5.6792   -5.7042    0.0000 O   0  0  0  0  0  0  0  0  0  0  0  0
    7.1042   -2.3917    0.0000 O   0  0  0  0  0  0  0  0  0  0  0  0
    2.1042   -1.9917    0.0000 C   0  0  0  0  0  0  0  0  0  0  0  0
    1.3917   -3.2292    0.0000 C   0  0  0  0  0  0  0  0  0  0  0  0
    1.3917   -2.4042    0.0000 C   0  0  0  0  0  0  0  0  0  0  0  0
    0.6792   -4.4750    0.0000 C   0  0  0  0  0  0  0  0  0  0  0  0
    6.3917   -4.4667    0.0000 C   0  0  0  0  0  0  0  0  0  0  0  0
  2  1  1  0
  3  2  1  0
  4  1  2  0
  5  4  1  0
  6  5  1  0
  7  1  1  0
  8  3  2  0
  9  4  1  0
 10 12  1  0
 11 10  1  0
 12  7  2  0
 13  7  1  0
 14  8  1  0
 15 13  1  0
 16 14  1  0
 17  2  2  0
 18  5  2  0
 19 11  2  0
 20 16  2  0
 21 15  2  0
 22 11  1  0
 23  6  2  0
 24  8  1  0
 25 23  1  0
 26 16  1  0
 27 15  1  0
 10  9  2  0
  6  3  1  0
 25 24  2  0
M  END
>  <ID>  (1421) 


>  <MOLENAME>  (1421) 
DIACERIN

>  <therap>  (1421) 
antiinflammatory

>  <ref>  (1421) 
Ther. Adv. Musculoskel. Dis. (2010), 2(2), 95-104; Biorheology (2000), 37(1,2), 177-184; Drugs (1997), 53(1), 98-106

>  <cas#>  (1421) 
13739-02-1

>  <source>  (1421) 
synthetic

>  <status>  (1421) 
INN

>  <tradename>  (1421) 
nan

>  <SMILES>  (1421) 
CC(=O)Oc1c2C(=O)c3c(cc(C(=O)O)cc3OC(C)=O)C(=O)c2ccc1

>  <standardized_failed>  (1421) 
False

$$$$

     RDKit          2D

 10 10  0  0  0  0  0  0  0  0999 V2000
    6.3625   -1.3792    0.0000 C   0  0  0  0  0  0  0  0  0  0  0  0
    7.0292   -0.0667    0.0000 N   0  0  0  0  0  0  0  0  0  0  0  0
    6.3625   -0.5542    0.0000 C   0  0  0  0  0  0  0  0  0  0  0  0
    5.5792   -1.6292    0.0000 S   0  0  0  0  0  0  0  0  0  0  0  0
    6.9417    0.7583    0.0000 C   0  0  0  0  0  0  0  0  0  0  0  0
    7.0292   -1.8667    0.0000 O   0  0  0  0  0  0  0  0  0  0  0  0
    7.6167    1.2458    0.0000 O   0  0  0  0  0  0  0  0  0  0  0  0
    5.5792   -0.3000    0.0000 C   0  0  0  0  0  0  0  0  0  0  0  0
    5.0917   -0.9667    0.0000 C   0  0  0  0  0  0  0  0  0  0  0  0
    6.1917    1.0958    0.0000 C   0  0  0  0  0  0  0  0  0  0  0  0
  2  3  1  0
  3  1  1  0
  4  1  1  0
  5  2  1  0
  6  1  2  0
  7  5  2  0
  8  3  1  0
  9  4  1  0
 10  5  1  0
  8  9  1  0
M  END
>  <ID>  (1422) 


>  <MOLENAME>  (1422) 
CITIOLONE

>  <therap>  (1422) 
hepatoprotectant, free radical scavenger

>  <ref>  (1422) 
Cryobiology 30:313 (1993); Histochemistry 101:215 (1994); Contact Dermatitis 33:352 (1995)

>  <cas#>  (1422) 
1195-16-0

>  <source>  (1422) 
synthetic

>  <status>  (1422) 
INN

>  <tradename>  (1422) 
CITIOLASE

>  <SMILES>  (1422) 
CC(=O)NC1CCSC1=O

>  <standardized_failed>  (1422) 
False

$$$$

     RDKit          2D

 26 28  0  0  0  0  0  0  0  0999 V2000
    1.7250  -17.2292    0.0000 C   0  0  0  0  0  0  0  0  0  0  0  0
    1.7292  -18.8875    0.0000 N   0  0  0  0  0  0  0  0  0  0  0  0
    2.4417  -18.4667    0.0000 C   0  0  0  0  0  0  0  0  0  0  0  0
    2.4417  -17.6417    0.0000 C   0  0  0  0  0  0  0  0  0  0  0  0
    3.8625  -15.9917    0.0000 C   0  0  0  0  0  0  0  0  0  0  0  0
    3.1500  -16.4042    0.0000 N   0  0  0  0  0  0  0  0  0  0  0  0
    1.0167  -18.4750    0.0000 C   0  0  0  0  0  0  0  0  0  0  0  0
    1.0167  -17.6500    0.0000 C   0  0  0  0  0  0  0  0  0  0  0  0
    2.4375  -16.0000    0.0000 C   0  0  0  0  0  0  0  0  0  0  0  0
    1.7250  -16.4125    0.0000 C   0  0  0  0  0  0  0  0  0  0  0  0
    2.4292  -15.1750    0.0000 C   0  0  0  0  0  0  0  0  0  0  0  0
    4.5750  -16.4000    0.0000 C   0  0  0  0  0  0  0  0  0  0  0  0
    3.8542  -15.1667    0.0000 O   0  0  0  0  0  0  0  0  0  0  0  0
    3.1625  -18.8792    0.0000 O   0  0  0  0  0  0  0  0  0  0  0  0
    1.7167  -14.7625    0.0000 O   0  0  0  0  0  0  0  0  0  0  0  0
    4.5667  -17.2167    0.0000 C   0  0  0  0  0  0  0  0  0  0  0  0
    5.2875  -15.9917    0.0000 C   0  0  0  0  0  0  0  0  0  0  0  0
    3.1417  -14.7542    0.0000 O   0  0  0  0  0  0  0  0  0  0  0  0
    5.9917  -17.2167    0.0000 C   0  0  0  0  0  0  0  0  0  0  0  0
    5.2792  -17.6292    0.0000 C   0  0  0  0  0  0  0  0  0  0  0  0
    5.9917  -16.3917    0.0000 C   0  0  0  0  0  0  0  0  0  0  0  0
    6.7125  -17.6250    0.0000 Cl  0  0  0  0  0  0  0  0  0  0  0  0
    0.3000  -18.8917    0.0000 C   0  0  0  0  0  0  0  0  0  0  0  0
    0.3000  -17.2375    0.0000 C   0  0  0  0  0  0  0  0  0  0  0  0
   -0.4125  -18.4792    0.0000 C   0  0  0  0  0  0  0  0  0  0  0  0
   -0.4125  -17.6500    0.0000 C   0  0  0  0  0  0  0  0  0  0  0  0
  2  7  1  0
  3  4  1  0
  4  1  2  0
  5  6  1  0
  6  9  1  0
  7  8  2  0
  8  1  1  0
  9 10  1  0
 10  1  1  0
 11  9  1  0
 12  5  1  0
 13  5  2  0
 14  3  2  0
 15 11  2  0
 16 12  2  0
 17 12  1  0
 18 11  1  0
 19 21  1  0
 20 16  1  0
 21 17  2  0
 22 19  1  0
 23  7  1  0
 24  8  1  0
 25 26  1  0
 26 24  2  0
  3  2  1  0
 23 25  2  0
 19 20  2  0
M  END
>  <ID>  (1423) 


>  <MOLENAME>  (1423) 
REBAMIPIDE

>  <therap>  (1423) 
antiulcer, antioxidant

>  <ref>  (1423) 
Chem Pharm Bull39:2906 (1991); Dig Dis Sci 43:35S (1998)

>  <cas#>  (1423) 
90098-04-7

>  <source>  (1423) 
synthetic

>  <status>  (1423) 
INN, JAN

>  <tradename>  (1423) 
nan

>  <SMILES>  (1423) 
O=C(NC(Cc1cc(=O)[nH]c2c1cccc2)C(=O)O)c1ccc(Cl)cc1

>  <standardized_failed>  (1423) 
False

$$$$

     RDKit          2D

 21 23  0  0  0  0  0  0  0  0999 V2000
    2.7042   -3.2542    0.0000 C   0  0  0  0  0  0  0  0  0  0  0  0
    4.8417   -2.0167    0.0000 N   0  0  0  0  0  0  0  0  0  0  0  0
    4.1292   -2.4292    0.0000 C   0  0  0  0  0  0  0  0  0  0  0  0
    4.1250   -3.2542    0.0000 C   0  0  0  0  0  0  0  0  0  0  0  0
    3.4167   -3.6667    0.0000 C   0  0  0  0  0  0  0  0  0  0  0  0
    5.5542   -2.4375    0.0000 C   0  0  0  0  0  0  0  0  0  0  0  0
    3.4167   -2.0167    0.0000 N   0  0  0  0  0  0  0  0  0  0  0  0
    2.7042   -2.4292    0.0000 C   0  0  0  0  0  0  0  0  0  0  0  0
    5.5542   -3.2625    0.0000 N   0  0  0  0  0  0  0  0  0  0  0  0
    1.9917   -3.6667    0.0000 C   0  0  0  0  0  0  0  0  0  0  0  0
    6.2667   -2.0292    0.0000 N   0  0  0  0  0  0  0  0  0  0  0  0
    4.8375   -3.6667    0.0000 C   0  0  0  0  0  0  0  0  0  0  0  0
    3.4167   -4.4917    0.0000 O   0  0  0  0  0  0  0  0  0  0  0  0
    1.2792   -3.2542    0.0000 O   0  0  0  0  0  0  0  0  0  0  0  0
    1.9917   -4.4917    0.0000 O   0  0  0  0  0  0  0  0  0  0  0  0
    3.4167   -1.1917    0.0000 C   0  0  0  0  0  0  0  0  0  0  0  0
    6.3542   -1.2042    0.0000 C   0  0  0  0  0  0  0  0  0  0  0  0
    7.0167   -2.3667    0.0000 C   0  0  0  0  0  0  0  0  0  0  0  0
    4.1292   -0.7792    0.0000 C   0  0  0  0  0  0  0  0  0  0  0  0
    7.1667   -1.0417    0.0000 C   0  0  0  0  0  0  0  0  0  0  0  0
    7.5750   -1.7542    0.0000 C   0  0  0  0  0  0  0  0  0  0  0  0
  2  3  2  0
  3  7  1  0
  4  5  1  0
  5  1  1  0
  6  2  1  0
  7  8  1  0
  8  1  2  0
  9 12  1  0
 10  1  1  0
 11  6  1  0
 12  4  2  0
 13  5  2  0
 14 10  2  0
 15 10  1  0
 16  7  1  0
 17 11  1  0
 18 11  1  0
 19 16  1  0
 20 17  1  0
 21 18  1  0
  4  3  1  0
  9  6  2  0
 21 20  1  0
M  END
>  <ID>  (1424) 


>  <MOLENAME>  (1424) 
PIROMIDIC ACID

>  <therap>  (1424) 
antibacterial

>  <ref>  (1424) 
Antimicrob Agents Chemother 1970:117, 123 

>  <cas#>  (1424) 
19562-30-2

>  <source>  (1424) 
synthetic; PD-93

>  <status>  (1424) 
INN, JAN

>  <tradename>  (1424) 
BACTRAMYL

>  <SMILES>  (1424) 
CCn1cc(C(=O)O)c(=O)c2cnc(N3CCCC3)nc21

>  <standardized_failed>  (1424) 
False

$$$$

     RDKit          2D

 24 24  0  0  0  0  0  0  0  0999 V2000
    0.9833   -1.9958    0.0000 C   0  0  0  0  0  0  0  0  0  0  0  0
    0.5708   -2.7083    0.0000 C   0  0  0  0  0  0  0  0  0  0  0  0
    0.5708   -1.2833    0.0000 C   0  0  0  0  0  0  0  0  0  0  0  0
    1.8042   -1.9917    0.0000 C   0  0  0  0  0  0  0  0  0  0  0  0
   -0.2542   -1.2875    0.0000 C   0  0  0  0  0  0  0  0  0  0  0  0
   -0.2542   -2.7083    0.0000 C   0  0  0  0  0  0  0  0  0  0  0  0
    3.1167   -4.1750    0.0000 N   0  0  0  0  0  0  0  0  0  0  0  0
   -0.6625   -2.0000    0.0000 C   0  0  0  0  0  0  0  0  0  0  0  0
    2.2167   -2.7042    0.0000 N   0  0  0  0  0  0  0  0  0  0  0  0
    3.4500   -3.4167    0.0000 C   0  0  0  0  0  0  0  0  0  0  0  0
    2.2125   -1.2792    0.0000 O   0  0  0  0  0  0  0  0  0  0  0  0
    3.0375   -2.7042    0.0000 C   0  0  0  0  0  0  0  0  0  0  0  0
   -0.6708   -0.5750    0.0000 Cl  0  0  0  0  0  0  0  0  0  0  0  0
    0.9833   -3.4250    0.0000 O   0  0  0  0  0  0  0  0  0  0  0  0
    0.9833   -0.5708    0.0000 O   0  0  0  0  0  0  0  0  0  0  0  0
    0.6167   -4.9917    0.0000 Cl  0  0  0  0  0  0  0  0  0  0  0  0
    3.7292   -4.7250    0.0000 C   0  0  0  0  0  0  0  0  0  0  0  0
    2.3125   -4.3458    0.0000 C   0  0  0  0  0  0  0  0  0  0  0  0
   -0.6625   -3.4208    0.0000 C   0  0  0  0  0  0  0  0  0  0  0  0
    4.4417   -4.3125    0.0000 C   0  0  0  0  0  0  0  0  0  0  0  0
    4.2708   -3.5042    0.0000 C   0  0  0  0  0  0  0  0  0  0  0  0
    1.8083   -0.5667    0.0000 C   0  0  0  0  0  0  0  0  0  0  0  0
    1.7583   -3.7375    0.0000 C   0  0  0  0  0  0  0  0  0  0  0  0
   -1.4875   -3.4208    0.0000 C   0  0  0  0  0  0  0  0  0  0  0  0
  2  1  2  0
  3  1  1  0
  4  1  1  0
  5  3  2  0
  6  2  1  0
  7 10  1  0
  8  5  1  0
  9  4  1  0
 12 10  1  0
 11  4  2  0
 12  9  1  0
 13  5  1  0
 14  2  1  0
 15  3  1  0
 17  7  1  0
 18  7  1  0
 19  6  1  0
 20 21  1  0
 21 10  1  0
 22 15  1  0
 23 18  1  0
 24 19  1  0
  6  8  2  0
 20 17  1  0
M  END
>  <ID>  (1425) 


>  <MOLENAME>  (1425) 
ETICLOPRIDE HYDROCHLORIDE

>  <therap>  (1425) 
dopamine D2 blocker

>  <ref>  (1425) 
Eur J Pharmacol 111:191 (1985); Physiol Behav 61:563 (1997); 83:456 (2006)

>  <cas#>  (1425) 
97612-24-3, 84226-12-0 (base)

>  <source>  (1425) 
synthetic

>  <status>  (1425) 
INN

>  <tradename>  (1425) 
nan

>  <SMILES>  (1425) 
CCc1cc(Cl)c(OC)c(C(=O)NCC2CCCN2CC)c1O

>  <standardized_failed>  (1425) 
False

$$$$

     RDKit          2D

 11 11  0  0  0  0  0  0  0  0999 V2000
    3.5292    1.7958    0.0000 C   0  0  0  0  0  0  0  0  0  0  0  0
    3.5292    0.9708    0.0000 N   0  0  0  0  0  0  0  0  0  0  0  0
    2.8042    0.5500    0.0000 C   0  0  0  0  0  0  0  0  0  0  0  0
    2.0917    0.9625    0.0000 C   0  0  0  0  0  0  0  0  0  0  0  0
    2.8125    2.2083    0.0000 O   0  0  0  0  0  0  0  0  0  0  0  0
    1.3792    0.5500    0.0000 C   0  0  0  0  0  0  0  0  0  0  0  0
    0.6542    0.9625    0.0000 O   0  0  0  0  0  0  0  0  0  0  0  0
    2.0917   -0.6875    0.0000 C   0  0  0  0  0  0  0  0  0  0  0  0
    4.2417    2.2083    0.0000 C   0  0  0  0  0  0  0  0  0  0  0  0
    2.8042   -0.2750    0.0000 C   0  0  0  0  0  0  0  0  0  0  0  0
    1.3792   -0.2750    0.0000 C   0  0  0  0  0  0  0  0  0  0  0  0
  2  1  1  0
  3  2  1  0
  4  3  2  0
  5  1  2  0
  6  4  1  0
  7  6  1  0
  8 10  2  0
  9  1  1  0
 10  3  1  0
 11  8  1  0
  6 11  2  0
M  END
>  <ID>  (1426) 


>  <MOLENAME>  (1426) 
METACETAMOL

>  <therap>  (1426) 
analgesic

>  <ref>  (1426) 
Hum Exp Toxicol 10:159 (1991)

>  <cas#>  (1426) 
621-42-1

>  <source>  (1426) 
synthetic; BS-749

>  <status>  (1426) 
INN, BAN

>  <tradename>  (1426) 
nan

>  <SMILES>  (1426) 
CC(=O)Nc1cc(O)ccc1

>  <standardized_failed>  (1426) 
False

$$$$

     RDKit          2D

 29 32  0  0  0  0  0  0  0  0999 V2000
    7.0167   -1.5000    0.0000 N   0  0  0  0  0  0  0  0  0  0  0  0
    6.3667   -0.7917    0.0000 C   0  0  0  0  0  0  0  0  0  0  0  0
    5.7167   -1.1667    0.0000 C   0  0  0  0  0  0  0  0  0  0  0  0
    5.7167   -1.9167    0.0000 C   0  0  0  0  0  0  0  0  0  0  0  0
    5.0667   -2.2917    0.0000 C   0  0  0  0  0  0  0  0  0  0  0  0
    6.3667   -0.0417    0.0000 C   0  0  0  0  0  0  0  0  0  0  0  0
    5.0167   -0.0667    0.0000 C   0  0  0  0  0  0  0  0  0  0  0  0
    5.0542   -0.8167    0.0000 O   0  0  0  0  0  0  0  0  0  0  0  0
    7.6667   -0.7917    0.0000 C   0  0  0  0  0  0  0  0  0  0  0  0
    7.0792    0.7208    0.0000 C   0  0  0  0  0  0  0  0  0  0  0  0
    7.6667   -0.0417    0.0000 C   0  0  0  0  0  0  0  0  0  0  0  0
    6.6042   -0.4667    0.0000 C   0  0  0  0  0  0  0  0  0  0  0  0
    5.0667   -3.0542    0.0000 C   0  0  0  0  0  0  0  0  0  0  0  0
    5.7167   -3.4292    0.0000 N   0  0  0  0  0  0  0  0  0  0  0  0
    4.4042   -1.9167    0.0000 C   0  0  0  0  0  0  0  0  0  0  0  0
    5.6542    0.3333    0.0000 O   0  0  0  0  0  0  0  0  0  0  0  0
    8.1292    0.5833    0.0000 C   0  0  0  0  0  0  0  0  0  0  0  0
    7.2292   -0.2500    0.0000 C   0  0  0  0  0  0  0  0  0  0  0  0
    4.4042   -3.4292    0.0000 C   0  0  0  0  0  0  0  0  0  0  0  0
    8.8667    0.4958    0.0000 C   0  0  0  0  0  0  0  0  0  0  0  0
    3.7667   -2.2917    0.0000 C   0  0  0  0  0  0  0  0  0  0  0  0
    4.3542    0.2833    0.0000 O   0  0  0  0  0  0  0  0  0  0  0  0
    6.3667   -3.0542    0.0000 C   0  0  0  0  0  0  0  0  0  0  0  0
    3.7667   -3.0542    0.0000 C   0  0  0  0  0  0  0  0  0  0  0  0
    6.3667   -2.2917    0.0000 C   0  0  0  0  0  0  0  0  0  0  0  0
    3.1042   -1.9167    0.0000 O   0  0  0  0  0  0  0  0  0  0  0  0
    4.3292    1.0333    0.0000 C   0  0  0  0  0  0  0  0  0  0  0  0
    3.1042   -1.1667    0.0000 C   0  0  0  0  0  0  0  0  0  0  0  0
    3.6667    1.3833    0.0000 C   0  0  0  0  0  0  0  0  0  0  0  0
  2  1  1  0
  3  2  1  0
  4  3  1  0
  5  4  1  0
  2  6  1  1
  7  8  1  0
  3  8  1  6
  1  9  1  1
 10 18  1  6
 11  9  1  0
  1 12  1  0
 13  5  2  0
 14 23  2  0
 15  5  1  0
 16  7  2  0
 11 17  1  1
 18 12  1  0
 19 13  1  0
 20 17  2  0
 21 15  2  0
 22  7  1  0
 23 25  1  0
 24 21  1  0
 25  4  2  0
 26 21  1  0
 27 22  1  0
 28 26  1  0
 29 27  1  0
 10 11  1  0
 10  6  1  0
 14 13  1  0
 24 19  2  0
M  END
>  <ID>  (1427) 


>  <MOLENAME>  (1427) 
QUININE ETHYL CARBONATE

>  <therap>  (1427) 
antimalarial

>  <ref>  (1427) 
JAMA 80:1617 (1923); Br J Clin Pharmacol 25:261 (1988); Indian J Pediatrics 59:646 (1992)

>  <cas#>  (1427) 
83-75-0

>  <source>  (1427) 
semisynthetic

>  <status>  (1427) 
JAN, NF-VIII

>  <tradename>  (1427) 
EUQUININE

>  <SMILES>  (1427) 
C=C[C@H]1C[N@]2CC[C@H]1C[C@@H]2[C@@H](OC(=O)OCC)c1ccnc2c1cc(OC)cc2

>  <standardized_failed>  (1427) 
False

$$$$

     RDKit          2D

 11 11  0  0  0  0  0  0  0  0999 V2000
    4.8250   -2.5292    0.0000 C   0  0  0  0  0  0  0  0  0  0  0  0
    4.8250   -3.3542    0.0000 C   0  0  0  0  0  0  0  0  0  0  0  0
    5.5375   -2.1125    0.0000 C   0  0  0  0  0  0  0  0  0  0  0  0
    5.5292   -1.2875    0.0000 O   0  0  0  0  0  0  0  0  0  0  0  0
    4.1042   -3.7667    0.0000 C   0  0  0  0  0  0  0  0  0  0  0  0
    5.5417   -3.7667    0.0000 O   0  0  0  0  0  0  0  0  0  0  0  0
    6.2542   -2.5167    0.0000 O   0  0  0  0  0  0  0  0  0  0  0  0
    4.1042   -2.1167    0.0000 C   0  0  0  0  0  0  0  0  0  0  0  0
    3.3917   -2.5292    0.0000 C   0  0  0  0  0  0  0  0  0  0  0  0
    3.3917   -3.3542    0.0000 C   0  0  0  0  0  0  0  0  0  0  0  0
    4.1042   -4.5917    0.0000 C   0  0  0  0  0  0  0  0  0  0  0  0
  2  1  2  0
  3  1  1  0
  4  3  2  0
  5  2  1  0
  6  2  1  0
  7  3  1  0
  8  1  1  0
  9  8  2  0
 10  9  1  0
 11  5  1  0
  5 10  2  0
M  END
>  <ID>  (1428) 


>  <MOLENAME>  (1428) 
HYDROXYTOLUIC ACID

>  <therap>  (1428) 
analgesic, antiseptic

>  <ref>  (1428) 
Biorg. Med. Chem. (2008), 16(20), 9101-9105; Mol. Pharmacol. (1987), 31(3), 284-93; Agents Actions (1978), 8(6), 587-605

>  <cas#>  (1428) 
83-40-9

>  <source>  (1428) 
synthetic; 3-MS

>  <status>  (1428) 
INN, BAN

>  <tradename>  (1428) 
nan

>  <SMILES>  (1428) 
Cc1cccc(C(=O)O)c1O

>  <standardized_failed>  (1428) 
False

$$$$

     RDKit          2D

 11 11  0  0  0  0  0  0  0  0999 V2000
    6.0917   -3.8250    0.0000 C   0  0  0  0  0  0  0  0  0  0  0  0
    5.3792   -4.2250    0.0000 C   0  0  0  0  0  0  0  0  0  0  0  0
    4.6667   -3.8250    0.0000 C   0  0  0  0  0  0  0  0  0  0  0  0
    6.0917   -3.0000    0.0000 C   0  0  0  0  0  0  0  0  0  0  0  0
    5.3792   -5.0500    0.0000 C   0  0  0  0  0  0  0  0  0  0  0  0
    6.8042   -4.2375    0.0000 O   0  0  0  0  0  0  0  0  0  0  0  0
    4.6667   -3.0000    0.0000 C   0  0  0  0  0  0  0  0  0  0  0  0
    5.3792   -2.5750    0.0000 C   0  0  0  0  0  0  0  0  0  0  0  0
    4.6667   -5.4625    0.0000 C   0  0  0  0  0  0  0  0  0  0  0  0
    6.0917   -5.4625    0.0000 C   0  0  0  0  0  0  0  0  0  0  0  0
    5.3792   -1.7500    0.0000 C   0  0  0  0  0  0  0  0  0  0  0  0
  2  1  1  0
  3  2  1  0
  4  1  1  0
  2  5  1  6
  1  6  1  1
  7  8  1  0
  8  4  1  0
  9  5  1  0
 10  5  1  0
  8 11  1  1
  7  3  1  0
M  END
>  <ID>  (1429) 


>  <MOLENAME>  (1429) 
LEVOMENTHOL

>  <therap>  (1429) 
analgesic (topical), antipruritic agent

>  <ref>  (1429) 
Food Chem. Toxicol. (2008), 46(11S), S218-S223; Perfum. Flavor. (2007), 32(12), 38-47; J. Neurosci. (2007), 27(37), 9874-9884

>  <cas#>  (1429) 
2216-51-5

>  <source>  (1429) 
Mentha piperita and other Mentha spp

>  <status>  (1429) 
INN, BAN, JAN

>  <tradename>  (1429) 
nan

>  <SMILES>  (1429) 
CC(C)[C@@H]1CC[C@@H](C)C[C@H]1O

>  <standardized_failed>  (1429) 
False

$$$$

     RDKit          2D

 13 13  0  0  0  0  0  0  0  0999 V2000
    3.7042   -0.9042    0.0000 N   0  0  0  0  0  0  0  0  0  0  0  0
    4.4167   -2.1375    0.0000 N   0  0  0  0  0  0  0  0  0  0  0  0
    5.1292   -0.9042    0.0000 C   0  0  0  0  0  0  0  0  0  0  0  0
    5.1292   -1.7292    0.0000 C   0  0  0  0  0  0  0  0  0  0  0  0
    4.4167   -0.4875    0.0000 C   0  0  0  0  0  0  0  0  0  0  0  0
    3.7042   -1.7292    0.0000 C   0  0  0  0  0  0  0  0  0  0  0  0
    4.4167    0.3375    0.0000 O   0  0  0  0  0  0  0  0  0  0  0  0
    5.8417   -2.1417    0.0000 O   0  0  0  0  0  0  0  0  0  0  0  0
    2.9917   -2.1417    0.0000 O   0  0  0  0  0  0  0  0  0  0  0  0
    5.9250   -1.1167    0.0000 C   0  0  0  0  0  0  0  0  0  0  0  0
    5.7125   -0.3167    0.0000 C   0  0  0  0  0  0  0  0  0  0  0  0
    6.5042   -0.5292    0.0000 C   0  0  0  0  0  0  0  0  0  0  0  0
    5.4917    0.4833    0.0000 C   0  0  0  0  0  0  0  0  0  0  0  0
  2  6  1  0
  3  5  1  0
  4  2  1  0
  5  1  1  0
  6  1  1  0
  7  5  2  0
  8  4  2  0
  9  6  2  0
 10  3  1  0
 11  3  1  0
 12 10  1  0
 13 11  1  0
  3  4  1  0
M  END
>  <ID>  (1430) 


>  <MOLENAME>  (1430) 
BARBITAL

>  <therap>  (1430) 
sedative

>  <ref>  (1430) 
Therapeutische Monatsh 17:208 (1903)

>  <cas#>  (1430) 
57-44-3

>  <source>  (1430) 
synthetic

>  <status>  (1430) 
INN

>  <tradename>  (1430) 
VERONAL

>  <SMILES>  (1430) 
CCC1(CC)C(=O)NC(=O)NC1=O

>  <standardized_failed>  (1430) 
False

$$$$

     RDKit          2D

  9  8  0  0  0  0  0  0  0  0999 V2000
    4.0042   -1.0042    0.0000 N   0  0  0  0  0  0  0  0  0  0  0  0
    3.2917   -1.4250    0.0000 C   0  0  0  0  0  0  0  0  0  0  0  0
    4.7208   -1.4167    0.0000 O   0  0  0  0  0  0  0  0  0  0  0  0
    3.9958   -0.1792    0.0000 O   0  0  0  0  0  0  0  0  0  0  0  0
    2.5750   -1.0125    0.0000 Br  0  0  0  0  0  0  0  0  0  0  0  0
    2.5792   -1.8375    0.0000 C   0  0  0  0  0  0  0  0  0  0  0  0
    4.0042   -1.8292    0.0000 C   0  0  0  0  0  0  0  0  0  0  0  0
    4.0042   -2.6542    0.0000 O   0  0  0  0  0  0  0  0  0  0  0  0
    2.5792   -2.6625    0.0000 O   0  0  0  0  0  0  0  0  0  0  0  0
  2  1  1  0
  3  1  1  0
  4  1  2  0
  5  2  1  0
  6  2  1  0
  7  2  1  0
  8  7  1  0
  9  6  1  0
M  CHG  2   1   1   3  -1
M  END
>  <ID>  (1431) 


>  <MOLENAME>  (1431) 
BRONOPOL

>  <therap>  (1431) 
antiinfective

>  <ref>  (1431) 
J Pharm Pharmacol 16 Suppl:127T (1964); J Soc Cosmet Chem 28:3 (1977)

>  <cas#>  (1431) 
52-51-7

>  <source>  (1431) 
nan

>  <status>  (1431) 
INN, BAN, JAN

>  <tradename>  (1431) 
BRONOSOL

>  <SMILES>  (1431) 
O=[N+]([O-])C(Br)(CO)CO

>  <standardized_failed>  (1431) 
False

$$$$

     RDKit          2D

 20 20  0  0  0  0  0  0  0  0999 V2000
    6.2292   -0.9042    0.0000 C   0  0  0  0  0  0  0  0  0  0  0  0
    4.8000   -0.9042    0.0000 C   0  0  0  0  0  0  0  0  0  0  0  0
    5.5125   -0.4917    0.0000 C   0  0  0  0  0  0  0  0  0  0  0  0
    6.2292   -1.7333    0.0000 C   0  0  0  0  0  0  0  0  0  0  0  0
    4.8000   -1.7333    0.0000 C   0  0  0  0  0  0  0  0  0  0  0  0
    5.5125   -2.1458    0.0000 C   0  0  0  0  0  0  0  0  0  0  0  0
    4.0875   -0.4958    0.0000 O   0  0  0  0  0  0  0  0  0  0  0  0
    3.3708   -0.9083    0.0000 C   0  0  0  0  0  0  0  0  0  0  0  0
    2.6583   -0.4958    0.0000 O   0  0  0  0  0  0  0  0  0  0  0  0
    6.9417   -0.4875    0.0000 C   0  0  0  0  0  0  0  0  0  0  0  0
    6.9417   -2.1417    0.0000 O   0  0  0  0  0  0  0  0  0  0  0  0
    9.0792   -1.7250    0.0000 N   0  0  0  0  0  0  0  0  0  0  0  0
    7.6542   -1.7292    0.0000 C   0  0  0  0  0  0  0  0  0  0  0  0
    4.0833   -2.1458    0.0000 C   0  0  0  0  0  0  0  0  0  0  0  0
    3.3708   -1.7333    0.0000 C   0  0  0  0  0  0  0  0  0  0  0  0
    8.3667   -2.1375    0.0000 C   0  0  0  0  0  0  0  0  0  0  0  0
    9.7917   -2.1333    0.0000 C   0  0  0  0  0  0  0  0  0  0  0  0
    9.0750   -0.9000    0.0000 C   0  0  0  0  0  0  0  0  0  0  0  0
    7.6583   -0.8958    0.0000 C   0  0  0  0  0  0  0  0  0  0  0  0
    6.9375    0.3375    0.0000 C   0  0  0  0  0  0  0  0  0  0  0  0
  2  3  1  0
  3  1  2  0
  4  1  1  0
  5  6  1  0
  6  4  2  0
  7  2  1  0
  8  7  1  0
  9  8  2  0
 10  1  1  0
 11  4  1  0
 12 16  1  0
 13 11  1  0
 14  5  1  0
 15  8  1  0
 16 13  1  0
 17 12  1  0
 18 12  1  0
 19 10  1  0
 20 10  1  0
  5  2  2  0
M  END
>  <ID>  (1432) 


>  <MOLENAME>  (1432) 
MOXISYLYTE HYDROCHORIDE

>  <therap>  (1432) 
alpha-adrenergic blocker

>  <ref>  (1432) 
J Auton Nerv Syst 79: 191 (2000); hepatotoxic at clinical dose (480mg)

>  <cas#>  (1432) 
54-32-0

>  <source>  (1432) 
synthetic

>  <status>  (1432) 
INN, BAN, JAN

>  <tradename>  (1432) 
nan

>  <SMILES>  (1432) 
CC(=O)Oc1c(C)cc(OCCN(C)C)c(C(C)C)c1

>  <standardized_failed>  (1432) 
False

$$$$

     RDKit          2D

 12 12  0  0  0  0  0  0  0  0999 V2000
   -0.3250    0.3167    0.0000 C   0  0  0  0  0  0  0  0  0  0  0  0
   -0.3250   -0.5125    0.0000 C   0  0  0  0  0  0  0  0  0  0  0  0
   -1.0417    0.7292    0.0000 C   0  0  0  0  0  0  0  0  0  0  0  0
    0.3875    0.7333    0.0000 C   0  0  0  0  0  0  0  0  0  0  0  0
   -1.7542   -0.5125    0.0000 C   0  0  0  0  0  0  0  0  0  0  0  0
   -1.7542    0.3125    0.0000 C   0  0  0  0  0  0  0  0  0  0  0  0
   -1.0417   -0.9250    0.0000 C   0  0  0  0  0  0  0  0  0  0  0  0
    1.8125    0.7333    0.0000 N   0  0  0  0  0  0  0  0  0  0  0  0
    0.3833    1.5583    0.0000 O   0  0  0  0  0  0  0  0  0  0  0  0
   -2.4708   -0.9250    0.0000 O   0  0  0  0  0  0  0  0  0  0  0  0
    1.1000    0.3208    0.0000 C   0  0  0  0  0  0  0  0  0  0  0  0
    2.5250    0.3250    0.0000 C   0  0  0  0  0  0  0  0  0  0  0  0
  2  1  2  0
  3  1  1  0
  4  1  1  0
  5  6  1  0
  6  3  2  0
  7  2  1  0
  8 11  1  0
  9  4  1  0
 10  5  1  0
 11  4  1  0
 12  8  1  0
  7  5  2  0
M  END
>  <ID>  (1433) 


>  <MOLENAME>  (1433) 
OXEDRINE

>  <therap>  (1433) 
anti-obesity

>  <ref>  (1433) 
Phytochemistry (Elsevier) (1977), 16(1), 9-18; J. Pharm. Pharmacol. (1987), 39(3), 153-7; J. Pharm. Pharmacol. (1987), 39(9), 752-4

>  <cas#>  (1433) 
94-07-5

>  <source>  (1433) 
citrus aurantium; SYNEPHRINE

>  <status>  (1433) 
BAN

>  <tradename>  (1433) 
nan

>  <SMILES>  (1433) 
CNCC(O)c1ccc(O)cc1

>  <standardized_failed>  (1433) 
False

$$$$

     RDKit          2D

 18 19  0  0  0  0  0  0  0  0999 V2000
    4.6667   -2.3417    0.0000 N   0  0  0  0  0  0  0  0  0  0  0  0
    5.1542   -3.0042    0.0000 C   0  0  0  0  0  0  0  0  0  0  0  0
    3.8417   -2.3417    0.0000 C   0  0  0  0  0  0  0  0  0  0  0  0
    3.5917   -1.5542    0.0000 C   0  0  0  0  0  0  0  0  0  0  0  0
    4.2542   -1.0667    0.0000 N   0  0  0  0  0  0  0  0  0  0  0  0
    5.9625   -3.0042    0.0000 C   0  0  0  0  0  0  0  0  0  0  0  0
    4.9250   -1.5542    0.0000 C   0  0  0  0  0  0  0  0  0  0  0  0
    4.8792   -3.8000    0.0000 O   0  0  0  0  0  0  0  0  0  0  0  0
    6.2167   -3.8000    0.0000 C   0  0  0  0  0  0  0  0  0  0  0  0
    5.5500   -4.2917    0.0000 C   0  0  0  0  0  0  0  0  0  0  0  0
    2.8042   -1.3000    0.0000 C   0  0  0  0  0  0  0  0  0  0  0  0
    3.3542   -3.0042    0.0000 N   0  0  0  0  0  0  0  0  0  0  0  0
    2.6292   -0.4917    0.0000 O   0  0  0  0  0  0  0  0  0  0  0  0
    6.4417   -2.3375    0.0000 O   0  0  0  0  0  0  0  0  0  0  0  0
    2.1917   -1.8542    0.0000 N   0  0  0  0  0  0  0  0  0  0  0  0
    7.0000   -4.0500    0.0000 O   0  0  0  0  0  0  0  0  0  0  0  0
    5.5542   -5.1042    0.0000 C   0  0  0  0  0  0  0  0  0  0  0  0
    6.3292   -5.3792    0.0000 O   0  0  0  0  0  0  0  0  0  0  0  0
  2  1  1  0
  3  1  1  0
  4  3  2  0
  5  7  2  0
  6  2  1  0
  7  1  1  0
  8  2  1  0
  9  6  1  0
 10  8  1  0
 11  4  1  0
 12  3  1  0
 13 11  2  0
  6 14  1  6
 15 11  1  0
  9 16  1  6
 10 17  1  1
 18 17  1  0
  4  5  1  0
  9 10  1  0
M  END
>  <ID>  (1434) 


>  <MOLENAME>  (1434) 
ACADESINE

>  <therap>  (1434) 
glucose uptake stimulant; AMPK activator

>  <ref>  (1434) 
Eur J Biochem 229:558 (1995)Biochem J 338:783 (1999); J Mol Neurosci 17:45 (2001)

>  <cas#>  (1434) 
2627-69-2

>  <source>  (1434) 
synthetic

>  <status>  (1434) 
INN

>  <tradename>  (1434) 
ARASINE

>  <SMILES>  (1434) 
NC(=O)c1c(N)n(C2O[C@H](CO)[C@@H](O)[C@H]2O)cn1

>  <standardized_failed>  (1434) 
False

$$$$

     RDKit          2D

 20 20  0  0  0  0  0  0  0  0999 V2000
    6.7042   -3.9917    0.0000 N   0  0  0  0  0  0  0  0  0  0  0  0
    3.8542   -4.0167    0.0000 C   0  0  0  0  0  0  0  0  0  0  0  0
    3.1458   -4.4333    0.0000 C   0  0  0  0  0  0  0  0  0  0  0  0
    3.8500   -3.1917    0.0000 O   0  0  0  0  0  0  0  0  0  0  0  0
    2.4292   -4.0208    0.0000 C   0  0  0  0  0  0  0  0  0  0  0  0
    3.1458   -5.2625    0.0000 C   0  0  0  0  0  0  0  0  0  0  0  0
    6.6958   -3.1708    0.0000 C   0  0  0  0  0  0  0  0  0  0  0  0
    7.4208   -4.3958    0.0000 C   0  0  0  0  0  0  0  0  0  0  0  0
    1.7167   -5.2625    0.0000 C   0  0  0  0  0  0  0  0  0  0  0  0
    1.7167   -4.4375    0.0000 C   0  0  0  0  0  0  0  0  0  0  0  0
    2.4292   -5.6750    0.0000 C   0  0  0  0  0  0  0  0  0  0  0  0
    1.0000   -5.6667    0.0000 F   0  0  0  0  0  0  0  0  0  0  0  0
    6.4292   -5.2417    0.0000 Cl  0  0  0  0  0  0  0  0  0  0  0  0
    8.1292   -3.9833    0.0000 C   0  0  0  0  0  0  0  0  0  0  0  0
    7.4083   -2.7542    0.0000 C   0  0  0  0  0  0  0  0  0  0  0  0
    6.0000   -4.4042    0.0000 C   0  0  0  0  0  0  0  0  0  0  0  0
    8.1250   -3.1625    0.0000 C   0  0  0  0  0  0  0  0  0  0  0  0
    5.2792   -4.0042    0.0000 C   0  0  0  0  0  0  0  0  0  0  0  0
    4.5750   -4.4167    0.0000 C   0  0  0  0  0  0  0  0  0  0  0  0
    8.8375   -2.7458    0.0000 C   0  0  0  0  0  0  0  0  0  0  0  0
  2 19  1  0
  3  2  1  0
  4  2  2  0
  5  3  2  0
  6  3  1  0
  7  1  1  0
  8  1  1  0
  9 10  2  0
 10  5  1  0
 11  6  2  0
 12  9  1  0
 14  8  1  0
 15  7  1  0
 16  1  1  0
 17 15  1  0
 18 16  1  0
 19 18  1  0
 20 17  1  0
 17 14  1  0
 11  9  1  0
M  END
>  <ID>  (1435) 


>  <MOLENAME>  (1435) 
MELPERONE HYDROCHLORIDE

>  <therap>  (1435) 
neuroleptic, 5HT/2a antagonist

>  <ref>  (1435) 
Neuropsychopharmacol 33:1337 (1993); J Psychopharmacol 18:509 (2005)

>  <cas#>  (1435) 
3575-80-2

>  <source>  (1435) 
synthetic; FG-5111

>  <status>  (1435) 
INN, BAN

>  <tradename>  (1435) 
nan

>  <SMILES>  (1435) 
CC1CCN(CCCC(=O)c2ccc(F)cc2)CC1

>  <standardized_failed>  (1435) 
False

$$$$

     RDKit          2D

 18 18  0  0  0  0  0  0  0  0999 V2000
    5.3167   -3.8000    0.0000 C   0  0  0  0  0  0  0  0  0  0  0  0
    5.3167   -2.9750    0.0000 N   0  0  0  0  0  0  0  0  0  0  0  0
    3.8917   -3.8000    0.0000 P   0  0  0  0  0  0  0  0  0  0  0  0
    4.6042   -4.2125    0.0000 O   0  0  0  0  0  0  0  0  0  0  0  0
    6.0292   -2.5542    0.0000 C   0  0  0  0  0  0  0  0  0  0  0  0
    6.0292   -4.2125    0.0000 C   0  0  0  0  0  0  0  0  0  0  0  0
    6.7500   -3.7917    0.0000 C   0  0  0  0  0  0  0  0  0  0  0  0
    6.7500   -2.9667    0.0000 C   0  0  0  0  0  0  0  0  0  0  0  0
    3.1750   -3.3875    0.0000 S   0  0  0  0  0  0  0  0  0  0  0  0
    3.8917   -2.9750    0.0000 O   0  0  0  0  0  0  0  0  0  0  0  0
    3.1750   -4.2125    0.0000 O   0  0  0  0  0  0  0  0  0  0  0  0
    6.0292   -1.7292    0.0000 Cl  0  0  0  0  0  0  0  0  0  0  0  0
    6.0375   -5.0375    0.0000 Cl  0  0  0  0  0  0  0  0  0  0  0  0
    7.4542   -2.5542    0.0000 Cl  0  0  0  0  0  0  0  0  0  0  0  0
    3.1792   -2.5625    0.0000 C   0  0  0  0  0  0  0  0  0  0  0  0
    3.1750   -5.0375    0.0000 C   0  0  0  0  0  0  0  0  0  0  0  0
    3.1792   -1.7375    0.0000 C   0  0  0  0  0  0  0  0  0  0  0  0
    2.4625   -5.4500    0.0000 C   0  0  0  0  0  0  0  0  0  0  0  0
  2  1  2  0
  3  4  1  0
  4  1  1  0
  5  2  1  0
  6  1  1  0
  7  6  2  0
  8  7  1  0
  9  3  2  0
 10  3  1  0
 11  3  1  0
 12  5  1  0
 13  6  1  0
 14  8  1  0
 15 10  1  0
 16 11  1  0
 17 15  1  0
 18 16  1  0
  8  5  2  0
M  END
>  <ID>  (1436) 


>  <MOLENAME>  (1436) 
CHLORPYRIFOS

>  <therap>  (1436) 
insecticide

>  <ref>  (1436) 
J Econ Entomol 58:1043 (1965); Toxicol Appl Pharmacol 21:315 (1972)

>  <cas#>  (1436) 
2921-88-2

>  <source>  (1436) 
synthetic; Dowco-179, ENT-27311

>  <status>  (1436) 
BAN

>  <tradename>  (1436) 
DURSBAN

>  <SMILES>  (1436) 
CCOP(=S)(OCC)Oc1nc(Cl)c(Cl)cc1Cl

>  <standardized_failed>  (1436) 
False

$$$$

     RDKit          2D

 16 16  0  0  0  0  0  0  0  0999 V2000
    5.9917   -2.3667    0.0000 C   0  0  0  0  0  0  0  0  0  0  0  0
    5.5792   -3.0792    0.0000 O   0  0  0  0  0  0  0  0  0  0  0  0
    6.8167   -2.3667    0.0000 N   0  0  0  0  0  0  0  0  0  0  0  0
    5.5792   -1.6542    0.0000 C   0  0  0  0  0  0  0  0  0  0  0  0
    4.7542   -1.6542    0.0000 C   0  0  0  0  0  0  0  0  0  0  0  0
    3.1125   -1.6542    0.0000 C   0  0  0  0  0  0  0  0  0  0  0  0
    4.3417   -0.9417    0.0000 C   0  0  0  0  0  0  0  0  0  0  0  0
    4.3417   -2.3667    0.0000 C   0  0  0  0  0  0  0  0  0  0  0  0
    7.2292   -3.0875    0.0000 O   0  0  0  0  0  0  0  0  0  0  0  0
    3.5167   -2.3667    0.0000 C   0  0  0  0  0  0  0  0  0  0  0  0
    3.5167   -0.9417    0.0000 C   0  0  0  0  0  0  0  0  0  0  0  0
    2.2875   -1.6542    0.0000 O   0  0  0  0  0  0  0  0  0  0  0  0
    1.5750   -1.2417    0.0000 C   0  0  0  0  0  0  0  0  0  0  0  0
    0.8625   -1.6542    0.0000 C   0  0  0  0  0  0  0  0  0  0  0  0
    0.1500   -1.2417    0.0000 C   0  0  0  0  0  0  0  0  0  0  0  0
   -0.5625   -1.6542    0.0000 C   0  0  0  0  0  0  0  0  0  0  0  0
  2  1  2  0
  3  1  1  0
  4  1  1  0
  5  4  1  0
  6 10  1  0
  7  5  2  0
  8  5  1  0
  9  3  1  0
 10  8  2  0
 11  7  1  0
 12  6  1  0
 13 12  1  0
 14 13  1  0
 15 14  1  0
 16 15  1  0
 11  6  2  0
M  END
>  <ID>  (1437) 


>  <MOLENAME>  (1437) 
BUFEXAMAC

>  <therap>  (1437) 
antiinflammatory, analgesic, antipyretic

>  <ref>  (1437) 
Med Pharmacol Exp 15:545 (1966): J Pharm Pharmacol 55:1379 (2003)

>  <cas#>  (1437) 
2438-72-4

>  <source>  (1437) 
synthetic; CP-1044-J3

>  <status>  (1437) 
INN, BAN, JAN

>  <tradename>  (1437) 
NORFEMAC

>  <SMILES>  (1437) 
CCCCOc1ccc(CC(=O)NO)cc1

>  <standardized_failed>  (1437) 
False

$$$$

     RDKit          2D

 16 16  0  0  0  0  0  0  0  0999 V2000
    3.7917   -0.8042    0.0000 C   0  0  0  0  0  0  0  0  0  0  0  0
    4.5125   -1.2167    0.0000 C   0  0  0  0  0  0  0  0  0  0  0  0
    3.0792   -1.2167    0.0000 C   0  0  0  0  0  0  0  0  0  0  0  0
    2.3667   -0.8042    0.0000 C   0  0  0  0  0  0  0  0  0  0  0  0
    5.2250   -0.8000    0.0000 C   0  0  0  0  0  0  0  0  0  0  0  0
    3.0792   -2.0417    0.0000 C   0  0  0  0  0  0  0  0  0  0  0  0
    4.5125   -2.0417    0.0000 C   0  0  0  0  0  0  0  0  0  0  0  0
    3.7917   -2.4542    0.0000 C   0  0  0  0  0  0  0  0  0  0  0  0
    3.7917    0.0208    0.0000 O   0  0  0  0  0  0  0  0  0  0  0  0
    1.6542   -1.2167    0.0000 C   0  0  0  0  0  0  0  0  0  0  0  0
    1.6542   -0.3917    0.0000 C   0  0  0  0  0  0  0  0  0  0  0  0
    2.3667    0.0208    0.0000 C   0  0  0  0  0  0  0  0  0  0  0  0
    5.9417   -1.2042    0.0000 C   0  0  0  0  0  0  0  0  0  0  0  0
    5.2167    0.0250    0.0000 C   0  0  0  0  0  0  0  0  0  0  0  0
    5.9375   -0.3792    0.0000 C   0  0  0  0  0  0  0  0  0  0  0  0
    3.7917   -3.2792    0.0000 C   0  0  0  0  0  0  0  0  0  0  0  0
  2  1  2  0
  3  1  1  0
  4  3  1  0
  5  2  1  0
  6  3  2  0
  7  2  1  0
  8  6  1  0
  9  1  1  0
 10  4  1  0
 11  4  1  0
 12  4  1  0
 13  5  1  0
 14  5  1  0
 15  5  1  0
 16  8  1  0
  7  8  2  0
M  END
>  <ID>  (1438) 


>  <MOLENAME>  (1438) 
BUTYLATED HYDROXYTOLUENE

>  <therap>  (1438) 
antioxidant

>  <ref>  (1438) 
Environ Res 29:1 (1982); Mutat Res 278:31 (1992); Toxicological Sci 51:202 (1999)

>  <cas#>  (1438) 
128-37-0

>  <source>  (1438) 
synthetic; 2,6-DI-t-BUTYL-4-METHYLPHENOL

>  <status>  (1438) 
NF, BAN

>  <tradename>  (1438) 
BHT

>  <SMILES>  (1438) 
Cc1cc(C(C)(C)C)c(O)c(C(C)(C)C)c1

>  <standardized_failed>  (1438) 
False

$$$$

     RDKit          2D

 26 28  0  0  0  0  0  0  0  0999 V2000
    2.3625   -0.9417    0.0000 C   0  0  0  0  0  0  0  0  0  0  0  0
    3.5917   -1.6542    0.0000 N   0  0  0  0  0  0  0  0  0  0  0  0
    4.8292   -2.3625    0.0000 C   0  0  0  0  0  0  0  0  0  0  0  0
    1.9500   -1.6542    0.0000 C   0  0  0  0  0  0  0  0  0  0  0  0
    3.1792   -0.9417    0.0000 C   0  0  0  0  0  0  0  0  0  0  0  0
    4.4167   -1.6542    0.0000 C   0  0  0  0  0  0  0  0  0  0  0  0
    5.6542   -2.3667    0.0000 C   0  0  0  0  0  0  0  0  0  0  0  0
    6.0625   -3.0750    0.0000 C   0  0  0  0  0  0  0  0  0  0  0  0
    4.4250   -3.0667    0.0000 C   0  0  0  0  0  0  0  0  0  0  0  0
    6.0667   -1.6542    0.0000 N   0  0  0  0  0  0  0  0  0  0  0  0
    2.3667   -2.3667    0.0000 O   0  0  0  0  0  0  0  0  0  0  0  0
    1.1250   -1.6625    0.0000 O   0  0  0  0  0  0  0  0  0  0  0  0
    5.6542   -3.7792    0.0000 C   0  0  0  0  0  0  0  0  0  0  0  0
    4.8292   -0.9417    0.0000 C   0  0  0  0  0  0  0  0  0  0  0  0
    4.8292   -3.7792    0.0000 C   0  0  0  0  0  0  0  0  0  0  0  0
    1.9542   -3.0875    0.0000 C   0  0  0  0  0  0  0  0  0  0  0  0
    5.6542   -0.9417    0.0000 C   0  0  0  0  0  0  0  0  0  0  0  0
    2.3667   -3.8000    0.0000 C   0  0  0  0  0  0  0  0  0  0  0  0
    5.9167   -4.3417    0.0000 Cl  0  0  0  0  0  0  0  0  0  0  0  0
    1.9500   -0.2292    0.0000 C   0  0  0  0  0  0  0  0  0  0  0  0
    3.1917   -3.8000    0.0000 O   0  0  0  0  0  0  0  0  0  0  0  0
    3.6000   -0.2292    0.0000 C   0  0  0  0  0  0  0  0  0  0  0  0
    1.1292   -4.5167    0.0000 O   0  0  0  0  0  0  0  0  0  0  0  0
    1.9542   -4.5167    0.0000 C   0  0  0  0  0  0  0  0  0  0  0  0
    2.3625    0.4875    0.0000 C   0  0  0  0  0  0  0  0  0  0  0  0
    3.1875    0.4833    0.0000 C   0  0  0  0  0  0  0  0  0  0  0  0
  2  5  1  0
  3  6  1  0
  4  1  1  0
  5  1  2  0
  6  2  1  0
  7  3  1  0
  8  7  2  0
  9  3  2  0
 10 17  2  0
 11  4  1  0
 12  4  2  0
 13 15  2  0
 14  6  2  0
 15  9  1  0
 16 11  1  0
 17 14  1  0
 18 16  1  0
 19 13  1  0
 20  1  1  0
 21 18  1  0
 22  5  1  0
 23 24  1  0
 24 18  1  0
 25 20  2  0
 26 25  1  0
 22 26  2  0
  7 10  1  0
 13  8  1  0
M  END
>  <ID>  (1439) 


>  <MOLENAME>  (1439) 
GLAFENINE

>  <therap>  (1439) 
analgesic

>  <ref>  (1439) 
Chim. Therap. (1966), (2), 65-70; J. Med. Chem. (1979), 22(5), 554-9; Arch. Int. Pharmacodyn. Ther. (1976), 224(1), 30-42

>  <cas#>  (1439) 
3820-67-5

>  <source>  (1439) 
synthetic; R-1707

>  <status>  (1439) 
INN, JAN

>  <tradename>  (1439) 
nan

>  <SMILES>  (1439) 
O=C(OCC(O)CO)c1c(Nc2ccnc3cc(Cl)ccc23)cccc1

>  <standardized_failed>  (1439) 
False

$$$$

     RDKit          2D

 22 24  0  0  0  0  0  0  0  0999 V2000
    5.6917   -3.2792    0.0000 S   0  0  0  0  0  0  0  0  0  0  0  0
    4.5792   -2.3875    0.0000 C   0  0  0  0  0  0  0  0  0  0  0  0
    4.8792   -3.1542    0.0000 N   0  0  0  0  0  0  0  0  0  0  0  0
    3.7792   -2.1667    0.0000 N   0  0  0  0  0  0  0  0  0  0  0  0
    5.0292   -1.7000    0.0000 C   0  0  0  0  0  0  0  0  0  0  0  0
    3.7417   -1.3500    0.0000 N   0  0  0  0  0  0  0  0  0  0  0  0
    6.5125   -3.4042    0.0000 C   0  0  0  0  0  0  0  0  0  0  0  0
    5.5667   -4.1000    0.0000 O   0  0  0  0  0  0  0  0  0  0  0  0
    5.8167   -2.4667    0.0000 O   0  0  0  0  0  0  0  0  0  0  0  0
    4.5125   -1.0542    0.0000 C   0  0  0  0  0  0  0  0  0  0  0  0
    3.1125   -2.6542    0.0000 C   0  0  0  0  0  0  0  0  0  0  0  0
    7.0292   -2.7625    0.0000 C   0  0  0  0  0  0  0  0  0  0  0  0
    6.8167   -4.1750    0.0000 C   0  0  0  0  0  0  0  0  0  0  0  0
    8.1417   -3.6500    0.0000 C   0  0  0  0  0  0  0  0  0  0  0  0
    8.9667   -3.7667    0.0000 N   0  0  0  0  0  0  0  0  0  0  0  0
    7.8417   -2.8875    0.0000 C   0  0  0  0  0  0  0  0  0  0  0  0
    7.6292   -4.2917    0.0000 C   0  0  0  0  0  0  0  0  0  0  0  0
    3.2000   -3.4792    0.0000 C   0  0  0  0  0  0  0  0  0  0  0  0
    2.3625   -2.3250    0.0000 C   0  0  0  0  0  0  0  0  0  0  0  0
    2.5292   -3.9667    0.0000 C   0  0  0  0  0  0  0  0  0  0  0  0
    1.6917   -2.8125    0.0000 C   0  0  0  0  0  0  0  0  0  0  0  0
    1.7792   -3.6292    0.0000 C   0  0  0  0  0  0  0  0  0  0  0  0
  2  3  1  0
  3  1  1  0
  4  2  1  0
  5  2  2  0
  6  4  1  0
  7  1  1  0
  8  1  2  0
  9  1  2  0
 10  5  1  0
 11  4  1  0
 12  7  2  0
 13  7  1  0
 14 17  1  0
 15 14  1  0
 16 12  1  0
 17 13  2  0
 18 11  2  0
 19 11  1  0
 20 18  1  0
 21 19  2  0
 22 21  1  0
 16 14  2  0
 10  6  2  0
 20 22  2  0
M  END
>  <ID>  (1440) 


>  <MOLENAME>  (1440) 
SULFAPHENAZOLE

>  <therap>  (1440) 
antibacterial

>  <ref>  (1440) 
Arzneim Forsch 15:1441 (1965)

>  <cas#>  (1440) 
526-08-9

>  <source>  (1440) 
synthetic

>  <status>  (1440) 
INN, BAN, JAN

>  <tradename>  (1440) 
SULFABID

>  <SMILES>  (1440) 
Nc1ccc(S(=O)(=O)Nc2ccnn2-c2ccccc2)cc1

>  <standardized_failed>  (1440) 
False

$$$$

     RDKit          2D

 32 34  0  0  0  0  0  0  0  0999 V2000
    7.2167  -10.2750    0.0000 N   0  0  0  0  0  0  0  0  0  0  0  0
    6.4292  -10.0167    0.0000 N   0  0  0  0  0  0  0  0  0  0  0  0
    6.4292  -11.3542    0.0000 C   0  0  0  0  0  0  0  0  0  0  0  0
    5.9500  -10.6917    0.0000 C   0  0  0  0  0  0  0  0  0  0  0  0
    7.2167  -11.1042    0.0000 C   0  0  0  0  0  0  0  0  0  0  0  0
    7.0750  -11.8792    0.0000 C   0  0  0  0  0  0  0  0  0  0  0  0
    7.9292   -9.8625    0.0000 C   0  0  0  0  0  0  0  0  0  0  0  0
    6.2542   -9.2167    0.0000 C   0  0  0  0  0  0  0  0  0  0  0  0
    7.8875  -11.5917    0.0000 O   0  0  0  0  0  0  0  0  0  0  0  0
    5.1250  -10.6917    0.0000 O   0  0  0  0  0  0  0  0  0  0  0  0
    7.5792  -13.2042    0.0000 C   0  0  0  0  0  0  0  0  0  0  0  0
    7.9750  -15.3500    0.0000 C   0  0  0  0  0  0  0  0  0  0  0  0
    6.9417  -12.6917    0.0000 O   0  0  0  0  0  0  0  0  0  0  0  0
    8.3500  -12.8917    0.0000 O   0  0  0  0  0  0  0  0  0  0  0  0
    7.2042  -15.6542    0.0000 O   0  0  0  0  0  0  0  0  0  0  0  0
    5.9417  -12.0167    0.0000 C   0  0  0  0  0  0  0  0  0  0  0  0
    7.4542  -14.0167    0.0000 C   0  0  0  0  0  0  0  0  0  0  0  0
    8.1000  -14.5292    0.0000 C   0  0  0  0  0  0  0  0  0  0  0  0
    8.6167  -15.8667    0.0000 O   0  0  0  0  0  0  0  0  0  0  0  0
    8.6417  -10.2750    0.0000 C   0  0  0  0  0  0  0  0  0  0  0  0
    7.9292   -9.0375    0.0000 C   0  0  0  0  0  0  0  0  0  0  0  0
    5.4750   -8.9625    0.0000 C   0  0  0  0  0  0  0  0  0  0  0  0
    6.8667   -8.6625    0.0000 C   0  0  0  0  0  0  0  0  0  0  0  0
    5.1167  -11.9292    0.0000 C   0  0  0  0  0  0  0  0  0  0  0  0
    4.6375  -12.6000    0.0000 C   0  0  0  0  0  0  0  0  0  0  0  0
    3.8167  -12.5125    0.0000 C   0  0  0  0  0  0  0  0  0  0  0  0
    8.6417   -8.6250    0.0000 C   0  0  0  0  0  0  0  0  0  0  0  0
    9.3542   -9.8625    0.0000 C   0  0  0  0  0  0  0  0  0  0  0  0
    6.6917   -7.8542    0.0000 C   0  0  0  0  0  0  0  0  0  0  0  0
    5.3000   -8.1542    0.0000 C   0  0  0  0  0  0  0  0  0  0  0  0
    5.9042   -7.6042    0.0000 C   0  0  0  0  0  0  0  0  0  0  0  0
    9.3542   -9.0375    0.0000 C   0  0  0  0  0  0  0  0  0  0  0  0
  2  1  1  0
  3  5  1  0
  4  2  1  0
  5  1  1  0
  6  3  1  0
  7  1  1  0
  8  2  1  0
  9  5  2  0
 10  4  2  0
 11 13  1  0
 12 18  1  0
 13  6  1  0
 14 11  2  0
 15 12  2  0
 16  3  1  0
 17 11  1  0
 18 17  1  0
 19 12  1  0
 20  7  2  0
 21  7  1  0
 22  8  2  0
 23  8  1  0
 24 16  1  0
 25 24  1  0
 26 25  1  0
 27 21  2  0
 28 20  1  0
 29 23  2  0
 30 22  1  0
 31 29  1  0
 32 27  1  0
  4  3  1  0
 28 32  2  0
 30 31  2  0
M  END
>  <ID>  (1441) 


>  <MOLENAME>  (1441) 
SUXIBUZONE

>  <therap>  (1441) 
analgesic, antipyretic, antiinflammatory

>  <ref>  (1441) 
J Pharm Sci 71:565 (1982); Int J Tissue React 5:35 (1983)

>  <cas#>  (1441) 
27470-51-5

>  <source>  (1441) 
synthetic

>  <status>  (1441) 
INN, BAN, JAN

>  <tradename>  (1441) 
DANILON

>  <SMILES>  (1441) 
CCCCC1(COC(=O)CCC(=O)O)C(=O)N(c2ccccc2)N(c2ccccc2)C1=O

>  <standardized_failed>  (1441) 
False

$$$$

     RDKit          2D

 18 19  0  0  0  0  0  0  0  0999 V2000
    1.0417   -0.1292    0.0000 C   0  0  0  0  0  0  0  0  0  0  0  0
    2.4667   -0.1375    0.0000 N   0  0  0  0  0  0  0  0  0  0  0  0
    1.7542   -0.5500    0.0000 C   0  0  0  0  0  0  0  0  0  0  0  0
    3.1792   -0.5542    0.0000 C   0  0  0  0  0  0  0  0  0  0  0  0
    1.0417    0.6958    0.0000 C   0  0  0  0  0  0  0  0  0  0  0  0
    3.8917   -0.1417    0.0000 C   0  0  0  0  0  0  0  0  0  0  0  0
    4.6042   -0.5625    0.0000 C   0  0  0  0  0  0  0  0  0  0  0  0
    0.3167    1.1083    0.0000 O   0  0  0  0  0  0  0  0  0  0  0  0
    1.7542    1.1083    0.0000 O   0  0  0  0  0  0  0  0  0  0  0  0
    5.3167   -0.1542    0.0000 Cl  0  0  0  0  0  0  0  0  0  0  0  0
    0.3292   -0.5500    0.0000 C   0  0  0  0  0  0  0  0  0  0  0  0
    3.1667   -1.3792    0.0000 C   0  0  0  0  0  0  0  0  0  0  0  0
    3.8917    0.6833    0.0000 C   0  0  0  0  0  0  0  0  0  0  0  0
    1.7542   -1.3750    0.0000 C   0  0  0  0  0  0  0  0  0  0  0  0
    3.8792   -1.7917    0.0000 C   0  0  0  0  0  0  0  0  0  0  0  0
    4.6042   -1.3917    0.0000 C   0  0  0  0  0  0  0  0  0  0  0  0
    0.3292   -1.3750    0.0000 C   0  0  0  0  0  0  0  0  0  0  0  0
    1.0417   -1.7792    0.0000 C   0  0  0  0  0  0  0  0  0  0  0  0
  2  3  1  0
  3  1  2  0
  4  2  1  0
  5  1  1  0
  6  4  2  0
  7  6  1  0
  8  5  2  0
  9  5  1  0
 10  7  1  0
 11  1  1  0
 12  4  1  0
 13  6  1  0
 14  3  1  0
 15 12  2  0
 16 15  1  0
 17 11  2  0
 18 17  1  0
 14 18  2  0
  7 16  2  0
M  END
>  <ID>  (1442) 


>  <MOLENAME>  (1442) 
TOLFENAMIC ACID

>  <therap>  (1442) 
antiinflammatory, analgesia

>  <ref>  (1442) 
Scand J Rheumatol 5:126 (1976); Suppl 33:50 (1980); Suppl 36:1 (1980)

>  <cas#>  (1442) 
13710-19-5

>  <source>  (1442) 
synthetic

>  <status>  (1442) 
INN, BAN, JAN

>  <tradename>  (1442) 
CLOTAM

>  <SMILES>  (1442) 
Cc1c(Nc2c(C(=O)O)cccc2)cccc1Cl

>  <standardized_failed>  (1442) 
False

$$$$

     RDKit          2D

 32 35  0  0  0  0  0  0  0  0999 V2000
    4.9250   -3.8250    0.0000 N   0  0  0  0  0  0  0  0  0  0  0  0
    4.9167   -5.9250    0.0000 C   0  0  0  0  0  0  0  0  0  0  0  0
    4.3625   -6.5417    0.0000 C   0  0  0  0  0  0  0  0  0  0  0  0
    4.1375   -3.5667    0.0000 C   0  0  0  0  0  0  0  0  0  0  0  0
    2.0792   -6.4042    0.0000 P   0  0  0  0  0  0  0  0  0  0  0  0
    3.6042   -6.2042    0.0000 C   0  0  0  0  0  0  0  0  0  0  0  0
    4.1375   -2.7417    0.0000 C   0  0  0  0  0  0  0  0  0  0  0  0
    4.9250   -2.4875    0.0000 N   0  0  0  0  0  0  0  0  0  0  0  0
    4.5000   -5.2042    0.0000 O   0  0  0  0  0  0  0  0  0  0  0  0
    5.4125   -3.1542    0.0000 C   0  0  0  0  0  0  0  0  0  0  0  0
    3.4167   -2.3292    0.0000 C   0  0  0  0  0  0  0  0  0  0  0  0
    3.6417   -5.4042    0.0000 C   0  0  0  0  0  0  0  0  0  0  0  0
    2.9250   -6.6000    0.0000 O   0  0  0  0  0  0  0  0  0  0  0  0
    3.4167   -1.5042    0.0000 N   0  0  0  0  0  0  0  0  0  0  0  0
    2.0917   -5.5250    0.0000 O   0  0  0  0  0  0  0  0  0  0  0  0
    3.4167   -3.9875    0.0000 N   0  0  0  0  0  0  0  0  0  0  0  0
    2.7042   -2.7500    0.0000 N   0  0  0  0  0  0  0  0  0  0  0  0
    4.3542   -7.3667    0.0000 O   0  0  0  0  0  0  0  0  0  0  0  0
    2.8292   -5.1167    0.0000 C   0  0  0  0  0  0  0  0  0  0  0  0
    4.1292   -1.0917    0.0000 C   0  0  0  0  0  0  0  0  0  0  0  0
    1.2792   -6.1875    0.0000 O   0  0  0  0  0  0  0  0  0  0  0  0
    2.7042   -3.5750    0.0000 C   0  0  0  0  0  0  0  0  0  0  0  0
    5.0667   -7.7792    0.0000 C   0  0  0  0  0  0  0  0  0  0  0  0
    1.6667   -7.1167    0.0000 O   0  0  0  0  0  0  0  0  0  0  0  0
    4.1292   -0.2667    0.0000 O   0  0  0  0  0  0  0  0  0  0  0  0
    5.0542   -8.6042    0.0000 O   0  0  0  0  0  0  0  0  0  0  0  0
    4.8417   -1.5042    0.0000 C   0  0  0  0  0  0  0  0  0  0  0  0
    5.7792   -7.3792    0.0000 C   0  0  0  0  0  0  0  0  0  0  0  0
    5.5542   -1.0917    0.0000 C   0  0  0  0  0  0  0  0  0  0  0  0
    6.4917   -7.7917    0.0000 C   0  0  0  0  0  0  0  0  0  0  0  0
    6.2750   -1.5000    0.0000 C   0  0  0  0  0  0  0  0  0  0  0  0
    7.2125   -7.3917    0.0000 C   0  0  0  0  0  0  0  0  0  0  0  0
  2  1  1  0
  3  2  1  0
  4  1  1  0
  5 13  1  0
  6  3  1  0
  7  4  2  0
  8 10  2  0
  9  2  1  0
 10  1  1  0
 11  7  1  0
 12  9  1  0
  6 13  1  6
 14 11  1  0
 15 19  1  0
 16  4  1  0
 17 22  1  0
  3 18  1  6
 12 19  1  1
 20 14  1  0
 21  5  2  0
 22 16  2  0
 23 18  1  0
 24  5  1  0
 25 20  2  0
 26 23  2  0
 27 20  1  0
 28 23  1  0
 29 27  1  0
 30 28  1  0
 31 29  1  0
 32 30  1  0
  8  7  1  0
 12  6  1  0
 11 17  2  0
  5 15  1  0
M  END
>  <ID>  (1443) 


>  <MOLENAME>  (1443) 
BUCLADESINE

>  <therap>  (1443) 
vasodilator

>  <ref>  (1443) 
Eur J Pharmacol 57:107 (1979); 91:343 (1983; Am J Cardiol 51:1364 (1983)

>  <cas#>  (1443) 
362-74-3

>  <source>  (1443) 
synthetic

>  <status>  (1443) 
INN, JAN

>  <tradename>  (1443) 
ACTOSIN

>  <SMILES>  (1443) 
CCCC(=O)Nc1ncnc2c1ncn2C1O[C@@H]2COP(=O)(O)O[C@H]2[C@H]1OC(=O)CCC

>  <standardized_failed>  (1443) 
False

$$$$

     RDKit          2D

 12 12  0  0  0  0  0  0  0  0999 V2000
   -3.2583   -2.0500    0.0000 C   0  0  0  0  0  0  0  0  0  0  0  0
   -2.5458   -2.4625    0.0000 C   0  0  0  0  0  0  0  0  0  0  0  0
   -3.2583   -1.2250    0.0000 O   0  0  0  0  0  0  0  0  0  0  0  0
   -3.1333   -3.0417    0.0000 C   0  0  0  0  0  0  0  0  0  0  0  0
   -1.8333   -2.0500    0.0000 N   0  0  0  0  0  0  0  0  0  0  0  0
   -3.9708   -2.4625    0.0000 O   0  0  0  0  0  0  0  0  0  0  0  0
   -3.1375   -3.8667    0.0000 C   0  0  0  0  0  0  0  0  0  0  0  0
   -3.8583   -4.2750    0.0000 C   0  0  0  0  0  0  0  0  0  0  0  0
   -2.4333   -4.2792    0.0000 C   0  0  0  0  0  0  0  0  0  0  0  0
   -2.4333   -5.1042    0.0000 C   0  0  0  0  0  0  0  0  0  0  0  0
   -3.8625   -5.1000    0.0000 C   0  0  0  0  0  0  0  0  0  0  0  0
   -3.1500   -5.5167    0.0000 C   0  0  0  0  0  0  0  0  0  0  0  0
  2  1  1  0
  3  1  2  0
  2  4  1  0
  2  5  1  6
  6  1  1  0
  7  4  1  0
  8  7  2  0
  9  7  1  0
 10  9  2  0
 11  8  1  0
 12 10  1  0
 11 12  2  0
M  END
>  <ID>  (1444) 


>  <MOLENAME>  (1444) 
D-PHENYLALANINE

>  <therap>  (1444) 
antidepressant

>  <ref>  (1444) 
Folia Psychiatr. Neurol. Jpn. (1983), 37(2), 137-44; D-Amino Acids in Chemistry, Life Sci., and Biotechnology (2011), 173-212; Mod. Pharmacol.-Toxicol. (1978), 12, 489-508.

>  <cas#>  (1444) 
673-06-3

>  <source>  (1444) 
synthetic

>  <status>  (1444) 
INN

>  <tradename>  (1444) 
nan

>  <SMILES>  (1444) 
N[C@H](Cc1ccccc1)C(=O)O

>  <standardized_failed>  (1444) 
False

$$$$

     RDKit          2D

 24 24  0  0  0  0  0  0  0  0999 V2000
    0.0042   -0.4292    0.0000 C   0  0  0  0  0  0  0  0  0  0  0  0
    0.7167   -0.0042    0.0000 C   0  0  0  0  0  0  0  0  0  0  0  0
   -0.0083   -1.2542    0.0000 C   0  0  0  0  0  0  0  0  0  0  0  0
   -0.7083   -0.0042    0.0000 C   0  0  0  0  0  0  0  0  0  0  0  0
    1.4292   -0.4167    0.0000 C   0  0  0  0  0  0  0  0  0  0  0  0
    3.5667    0.0083    0.0000 C   0  0  0  0  0  0  0  0  0  0  0  0
    2.1417   -0.0042    0.0000 C   0  0  0  0  0  0  0  0  0  0  0  0
    7.1292   -1.2167    0.0000 C   0  0  0  0  0  0  0  0  0  0  0  0
    4.9917    0.0083    0.0000 C   0  0  0  0  0  0  0  0  0  0  0  0
    2.8542   -0.4042    0.0000 C   0  0  0  0  0  0  0  0  0  0  0  0
    4.2792   -0.4042    0.0000 C   0  0  0  0  0  0  0  0  0  0  0  0
    6.4167   -1.6375    0.0000 O   0  0  0  0  0  0  0  0  0  0  0  0
    5.7042   -0.4042    0.0000 C   0  0  0  0  0  0  0  0  0  0  0  0
    7.1292   -0.3917    0.0000 O   0  0  0  0  0  0  0  0  0  0  0  0
    6.4167    0.0083    0.0000 C   0  0  0  0  0  0  0  0  0  0  0  0
   -0.7208   -1.6542    0.0000 C   0  0  0  0  0  0  0  0  0  0  0  0
   -1.4208   -0.4167    0.0000 C   0  0  0  0  0  0  0  0  0  0  0  0
    0.7042   -1.6667    0.0000 C   0  0  0  0  0  0  0  0  0  0  0  0
   -1.2958    0.5833    0.0000 C   0  0  0  0  0  0  0  0  0  0  0  0
   -0.1333    0.5833    0.0000 C   0  0  0  0  0  0  0  0  0  0  0  0
   -1.4333   -1.2417    0.0000 C   0  0  0  0  0  0  0  0  0  0  0  0
    7.8500   -1.6250    0.0000 C   0  0  0  0  0  0  0  0  0  0  0  0
    2.1292    0.8208    0.0000 C   0  0  0  0  0  0  0  0  0  0  0  0
    4.9792    0.8333    0.0000 C   0  0  0  0  0  0  0  0  0  0  0  0
  2  1  1  0
  3  1  2  0
  4  1  1  0
  5  2  2  0
  6 10  1  0
  7  5  1  0
  8 14  1  0
  9 11  1  0
 10  7  2  0
 11  6  2  0
 12  8  2  0
 13  9  2  0
 14 15  1  0
 15 13  1  0
 16  3  1  0
 17  4  1  0
 18  3  1  0
 19  4  1  0
 20  4  1  0
 21 17  1  0
 22  8  1  0
 23  7  1  0
 24  9  1  0
 16 21  1  0
M  END
>  <ID>  (1445) 


>  <MOLENAME>  (1445) 
RETINYL ACETATE

>  <therap>  (1445) 
vitamin precursor

>  <ref>  (1445) 
Cancer Res 42:903 (1982); J Cell Physiol 144:229 (1990)

>  <cas#>  (1445) 
127-47-9

>  <source>  (1445) 
semisynthetic

>  <status>  (1445) 
JAN

>  <tradename>  (1445) 
nan

>  <SMILES>  (1445) 
CC(=O)OC/C=C(C)/C=C/C=C(C)/C=C/C1=C(C)CCCC1(C)C

>  <standardized_failed>  (1445) 
False

$$$$

     RDKit          2D

 20 22  0  0  0  0  0  0  0  0999 V2000
    7.2417   -7.3667    0.0000 C   0  0  0  0  0  0  0  0  0  0  0  0
    5.8167   -7.3667    0.0000 C   0  0  0  0  0  0  0  0  0  0  0  0
    6.5292   -7.7792    0.0000 N   0  0  0  0  0  0  0  0  0  0  0  0
    7.2417   -6.5417    0.0000 C   0  0  0  0  0  0  0  0  0  0  0  0
    5.8167   -6.5417    0.0000 N   0  0  0  0  0  0  0  0  0  0  0  0
    6.5292   -6.1292    0.0000 C   0  0  0  0  0  0  0  0  0  0  0  0
    8.5125   -6.9542    0.0000 N   0  0  0  0  0  0  0  0  0  0  0  0
    8.0292   -7.6250    0.0000 N   0  0  0  0  0  0  0  0  0  0  0  0
    8.0292   -6.2917    0.0000 N   0  0  0  0  0  0  0  0  0  0  0  0
    5.1042   -7.7792    0.0000 C   0  0  0  0  0  0  0  0  0  0  0  0
    6.5292   -5.3042    0.0000 O   0  0  0  0  0  0  0  0  0  0  0  0
    5.1042   -8.6125    0.0000 C   0  0  0  0  0  0  0  0  0  0  0  0
    4.3917   -7.3667    0.0000 C   0  0  0  0  0  0  0  0  0  0  0  0
    5.8250   -9.0375    0.0000 O   0  0  0  0  0  0  0  0  0  0  0  0
    4.3917   -9.0250    0.0000 C   0  0  0  0  0  0  0  0  0  0  0  0
    6.5500   -8.6292    0.0000 C   0  0  0  0  0  0  0  0  0  0  0  0
    7.2625   -9.0500    0.0000 C   0  0  0  0  0  0  0  0  0  0  0  0
    3.6750   -7.7792    0.0000 C   0  0  0  0  0  0  0  0  0  0  0  0
    7.9875   -8.6417    0.0000 C   0  0  0  0  0  0  0  0  0  0  0  0
    3.6750   -8.6125    0.0000 C   0  0  0  0  0  0  0  0  0  0  0  0
  2  3  2  0
  3  1  1  0
  4  1  2  0
  5  6  1  0
  6  4  1  0
  7  8  1  0
  8  1  1  0
  9  4  1  0
 10  2  1  0
 11  6  2  0
 12 10  2  0
 13 10  1  0
 14 12  1  0
 15 12  1  0
 16 14  1  0
 17 16  1  0
 18 13  2  0
 19 17  1  0
 20 18  1  0
  7  9  2  0
  2  5  1  0
 15 20  2  0
M  END
>  <ID>  (1446) 


>  <MOLENAME>  (1446) 
ZAPRINAST

>  <therap>  (1446) 
cGMP phosphodiesterase inhibitor

>  <ref>  (1446) 
Eur J Pharmacol 411:1 (2001); FEBS Lett 580:5003 (2006)

>  <cas#>  (1446) 
37762-06-4

>  <source>  (1446) 
synthetic; M&B-22948

>  <status>  (1446) 
INN, BAN

>  <tradename>  (1446) 
nan

>  <SMILES>  (1446) 
CCCOc1c(-c2nc3c(nn[nH]3)c(=O)[nH]2)cccc1

>  <standardized_failed>  (1446) 
False

$$$$

     RDKit          2D

 16 16  0  0  0  0  0  0  0  0999 V2000
    1.6292    0.0958    0.0000 C   0  0  0  0  0  0  0  0  0  0  0  0
    2.0417    0.8083    0.0000 C   0  0  0  0  0  0  0  0  0  0  0  0
    2.0417   -0.6250    0.0000 C   0  0  0  0  0  0  0  0  0  0  0  0
    1.6292    1.5208    0.0000 O   0  0  0  0  0  0  0  0  0  0  0  0
    2.8667    0.8083    0.0000 N   0  0  0  0  0  0  0  0  0  0  0  0
    0.8042    0.0958    0.0000 C   0  0  0  0  0  0  0  0  0  0  0  0
    2.8667   -0.6250    0.0000 O   0  0  0  0  0  0  0  0  0  0  0  0
    1.6292   -1.3375    0.0000 C   0  0  0  0  0  0  0  0  0  0  0  0
    3.2792   -1.3417    0.0000 C   0  0  0  0  0  0  0  0  0  0  0  0
    4.1042   -1.3417    0.0000 C   0  0  0  0  0  0  0  0  0  0  0  0
    5.7500   -2.7750    0.0000 C   0  0  0  0  0  0  0  0  0  0  0  0
    5.3375   -2.0542    0.0000 C   0  0  0  0  0  0  0  0  0  0  0  0
    4.5125   -2.0542    0.0000 C   0  0  0  0  0  0  0  0  0  0  0  0
    0.3917   -0.6250    0.0000 C   0  0  0  0  0  0  0  0  0  0  0  0
    6.5750   -2.7750    0.0000 C   0  0  0  0  0  0  0  0  0  0  0  0
    0.8042   -1.3375    0.0000 C   0  0  0  0  0  0  0  0  0  0  0  0
  2  1  1  0
  3  1  2  0
  4  2  2  0
  5  2  1  0
  6  1  1  0
  7  3  1  0
  8  3  1  0
  9  7  1  0
 10  9  1  0
 11 12  1  0
 12 13  1  0
 13 10  1  0
 14  6  2  0
 15 11  1  0
 16 14  1  0
 16  8  2  0
M  END
>  <ID>  (1447) 


>  <MOLENAME>  (1447) 
EXALAMIDE

>  <therap>  (1447) 
antifungal

>  <ref>  (1447) 
J Pharm Pharmacol 9: 855 (1957)

>  <cas#>  (1447) 
53370-90-4

>  <source>  (1447) 
synthetic

>  <status>  (1447) 
INN, JAN

>  <tradename>  (1447) 
nan

>  <SMILES>  (1447) 
CCCCCCOc1c(C(N)=O)cccc1

>  <standardized_failed>  (1447) 
False

$$$$

     RDKit          2D

 12 12  0  0  0  0  0  0  0  0999 V2000
    3.0375   -1.7417    0.0000 S   0  0  0  0  0  0  0  0  0  0  0  0
    2.2125   -1.7417    0.0000 S   0  0  0  0  0  0  0  0  0  0  0  0
    6.8542   -0.5375    0.0000 C   0  0  0  0  0  0  0  0  0  0  0  0
    6.8500    0.2875    0.0000 O   0  0  0  0  0  0  0  0  0  0  0  0
    3.2917   -0.9542    0.0000 C   0  0  0  0  0  0  0  0  0  0  0  0
    7.5667   -0.9417    0.0000 O   0  0  0  0  0  0  0  0  0  0  0  0
    2.6250   -0.4750    0.0000 C   0  0  0  0  0  0  0  0  0  0  0  0
    1.9542   -0.9542    0.0000 C   0  0  0  0  0  0  0  0  0  0  0  0
    6.1417   -0.9500    0.0000 C   0  0  0  0  0  0  0  0  0  0  0  0
    4.0042   -0.5417    0.0000 C   0  0  0  0  0  0  0  0  0  0  0  0
    5.4292   -0.5417    0.0000 C   0  0  0  0  0  0  0  0  0  0  0  0
    4.7167   -0.9542    0.0000 C   0  0  0  0  0  0  0  0  0  0  0  0
  2  1  1  0
  3  9  1  0
  4  3  2  0
  5  1  1  0
  6  3  1  0
  7  5  1  0
  8  2  1  0
  9 11  1  0
 10  5  1  0
 11 12  1  0
 12 10  1  0
  7  8  1  0
M  END
>  <ID>  (1448) 


>  <MOLENAME>  (1448) 
THIOCTIC ACID

>  <therap>  (1448) 
hepatoprotectant

>  <ref>  (1448) 
JACS 74:1868, 3455 (1992); Angewante Chemie Int Ed 4:846 (1965); Arzneim Forsch 20:1210 (1970)

>  <cas#>  (1448) 
1077-24-7

>  <source>  (1448) 
synthetic; alpha-lipoic acid

>  <status>  (1448) 
JAN

>  <tradename>  (1448) 
BILETAN

>  <SMILES>  (1448) 
O=C(O)CCCCC1CCSS1

>  <standardized_failed>  (1448) 
False

$$$$

     RDKit          2D

 22 24  0  0  0  0  0  0  0  0999 V2000
    4.8167    0.5083    0.0000 S   0  0  0  0  0  0  0  0  0  0  0  0
    3.9917    0.4958    0.0000 N   0  0  0  0  0  0  0  0  0  0  0  0
    3.5792   -0.2167    0.0000 C   0  0  0  0  0  0  0  0  0  0  0  0
    2.3417    0.4958    0.0000 N   0  0  0  0  0  0  0  0  0  0  0  0
    2.7542   -0.2167    0.0000 N   0  0  0  0  0  0  0  0  0  0  0  0
    5.2417   -0.1750    0.0000 C   0  0  0  0  0  0  0  0  0  0  0  0
    5.5417    0.9375    0.0000 O   0  0  0  0  0  0  0  0  0  0  0  0
    4.5542    1.2833    0.0000 O   0  0  0  0  0  0  0  0  0  0  0  0
    2.6792    1.2458    0.0000 C   0  0  0  0  0  0  0  0  0  0  0  0
    1.5250    0.5750    0.0000 C   0  0  0  0  0  0  0  0  0  0  0  0
    1.3542    1.3833    0.0000 C   0  0  0  0  0  0  0  0  0  0  0  0
    2.0667    1.7958    0.0000 C   0  0  0  0  0  0  0  0  0  0  0  0
    4.0000   -0.9292    0.0000 O   0  0  0  0  0  0  0  0  0  0  0  0
    4.8250   -0.8792    0.0000 C   0  0  0  0  0  0  0  0  0  0  0  0
    6.0542   -0.1750    0.0000 C   0  0  0  0  0  0  0  0  0  0  0  0
    6.4667   -0.8875    0.0000 C   0  0  0  0  0  0  0  0  0  0  0  0
    5.2292   -1.5917    0.0000 C   0  0  0  0  0  0  0  0  0  0  0  0
    6.0542   -1.6042    0.0000 C   0  0  0  0  0  0  0  0  0  0  0  0
    1.8917    2.5958    0.0000 C   0  0  0  0  0  0  0  0  0  0  0  0
    0.7417    1.9250    0.0000 C   0  0  0  0  0  0  0  0  0  0  0  0
    1.0792    2.6750    0.0000 C   0  0  0  0  0  0  0  0  0  0  0  0
    6.4625   -2.3167    0.0000 C   0  0  0  0  0  0  0  0  0  0  0  0
  2  1  1  0
  3  2  1  0
  4  5  1  0
  5  3  1  0
  6  1  1  0
  7  1  2  0
  8  1  2  0
  9  4  1  0
 10  4  1  0
 11 10  1  0
 12  9  1  0
 13  3  2  0
 14  6  2  0
 15  6  1  0
 16 15  2  0
 17 14  1  0
 18 16  1  0
 19 12  1  0
 20 11  1  0
 21 20  1  0
 22 18  1  0
 18 17  2  0
 12 11  1  0
 21 19  1  0
M  END
>  <ID>  (1449) 


>  <MOLENAME>  (1449) 
GLICLAZIDE

>  <therap>  (1449) 
antidiabetic, adhesion inhibitor

>  <ref>  (1449) 
Drugs 27:301 (1984); J Diabetes Complications 14:201 (2000); Metabolism 50: 688 (2001)

>  <cas#>  (1449) 
21187-98-4

>  <source>  (1449) 
synthetic; SE-1702

>  <status>  (1449) 
INN, BAN, JAN

>  <tradename>  (1449) 
nan

>  <SMILES>  (1449) 
Cc1ccc(S(=O)(=O)NC(=O)NN2CC3CCCC3C2)cc1

>  <standardized_failed>  (1449) 
False

$$$$

     RDKit          2D

 18 18  0  0  0  0  0  0  0  0999 V2000
    7.7292   -2.3167    0.0000 N   0  0  0  0  0  0  0  0  0  0  0  0
    4.1792   -2.7417    0.0000 C   0  0  0  0  0  0  0  0  0  0  0  0
    3.4667   -2.3375    0.0000 N   0  0  0  0  0  0  0  0  0  0  0  0
    7.0292   -2.7375    0.0000 C   0  0  0  0  0  0  0  0  0  0  0  0
    6.3125   -2.3292    0.0000 C   0  0  0  0  0  0  0  0  0  0  0  0
    3.4625   -1.5125    0.0000 N   0  0  0  0  0  0  0  0  0  0  0  0
    4.8917   -2.3292    0.0000 N   0  0  0  0  0  0  0  0  0  0  0  0
    7.0125   -1.0917    0.0000 N   0  0  0  0  0  0  0  0  0  0  0  0
    7.7292   -1.5000    0.0000 C   0  0  0  0  0  0  0  0  0  0  0  0
    6.3042   -1.5125    0.0000 C   0  0  0  0  0  0  0  0  0  0  0  0
    5.6042   -2.7417    0.0000 C   0  0  0  0  0  0  0  0  0  0  0  0
    4.1792   -3.5667    0.0000 O   0  0  0  0  0  0  0  0  0  0  0  0
    4.1750   -1.0917    0.0000 O   0  0  0  0  0  0  0  0  0  0  0  0
    7.0292   -3.5625    0.0000 N   0  0  0  0  0  0  0  0  0  0  0  0
    2.7542   -2.7500    0.0000 C   0  0  0  0  0  0  0  0  0  0  0  0
    1.3292   -2.7542    0.0000 Cl  0  0  0  0  0  0  0  0  0  0  0  0
    2.0417   -2.3417    0.0000 C   0  0  0  0  0  0  0  0  0  0  0  0
    8.4417   -1.0792    0.0000 C   0  0  0  0  0  0  0  0  0  0  0  0
  2  7  1  0
  3  2  1  0
  4  1  2  0
  5  4  1  0
  6  3  1  0
  7 11  1  0
  8  9  2  0
  9  1  1  0
 10  8  1  0
 11  5  1  0
 12  2  2  0
 13  6  2  0
 14  4  1  0
 15  3  1  0
 16 17  1  0
 17 15  1  0
 18  9  1  0
  5 10  2  0
M  END
>  <ID>  (1450) 


>  <MOLENAME>  (1450) 
NIMUSTINE

>  <therap>  (1450) 
antineoplastic

>  <ref>  (1450) 
Carcinogenesis 21: 1879 (2000)

>  <cas#>  (1450) 
42471-28-3

>  <source>  (1450) 
synthetic

>  <status>  (1450) 
INN, JAN

>  <tradename>  (1450) 
nan

>  <SMILES>  (1450) 
Cc1ncc(CNC(=O)N(CCCl)N=O)c(N)n1

>  <standardized_failed>  (1450) 
False

$$$$

     RDKit          2D

 14 14  0  0  0  0  0  0  0  0999 V2000
    2.8542   -2.0875    0.0000 C   0  0  0  0  0  0  0  0  0  0  0  0
    5.7042   -2.0792    0.0000 C   0  0  0  0  0  0  0  0  0  0  0  0
    4.9917   -1.6667    0.0000 C   0  0  0  0  0  0  0  0  0  0  0  0
    2.8542   -2.9125    0.0000 O   0  0  0  0  0  0  0  0  0  0  0  0
    2.1417   -1.6792    0.0000 C   0  0  0  0  0  0  0  0  0  0  0  0
    5.7042   -2.9042    0.0000 O   0  0  0  0  0  0  0  0  0  0  0  0
    3.5667   -1.6750    0.0000 N   0  0  0  0  0  0  0  0  0  0  0  0
    4.2792   -2.0792    0.0000 C   0  0  0  0  0  0  0  0  0  0  0  0
    6.4167   -1.6667    0.0000 O   0  0  0  0  0  0  0  0  0  0  0  0
    1.4292   -2.0917    0.0000 C   0  0  0  0  0  0  0  0  0  0  0  0
    2.1292   -0.8542    0.0000 C   0  0  0  0  0  0  0  0  0  0  0  0
    1.4167   -0.4417    0.0000 C   0  0  0  0  0  0  0  0  0  0  0  0
    0.7167   -1.6875    0.0000 C   0  0  0  0  0  0  0  0  0  0  0  0
    0.7042   -0.8667    0.0000 C   0  0  0  0  0  0  0  0  0  0  0  0
  2  3  1  0
  3  8  1  0
  4  1  2  0
  5  1  1  0
  6  2  2  0
  7  1  1  0
  8  7  1  0
  9  2  1  0
 10  5  2  0
 11  5  1  0
 12 11  2  0
 13 10  1  0
 14 12  1  0
 13 14  2  0
M  END
>  <ID>  (1451) 


>  <MOLENAME>  (1451) 
BETAMIPRON

>  <therap>  (1451) 
antibacterial, renal protectant, sweetener

>  <ref>  (1451) 
Antimicrob Agents Chemother 36:1810 (1992); Jpn J Pharmacol 63:487 (1993)

>  <cas#>  (1451) 
3440-28-6

>  <source>  (1451) 
synthetic; CS-443

>  <status>  (1451) 
INN, JAN

>  <tradename>  (1451) 
nan

>  <SMILES>  (1451) 
O=C(O)CCNC(=O)c1ccccc1

>  <standardized_failed>  (1451) 
False

$$$$

     RDKit          2D

 31 33  0  0  0  0  0  0  0  0999 V2000
    4.2583   -0.4250    0.0000 S   0  0  0  0  0  0  0  0  0  0  0  0
    4.9750   -0.8333    0.0000 N   0  0  0  0  0  0  0  0  0  0  0  0
    4.9792   -1.6625    0.0000 C   0  0  0  0  0  0  0  0  0  0  0  0
    4.2667   -2.0792    0.0000 C   0  0  0  0  0  0  0  0  0  0  0  0
    5.6917   -2.0667    0.0000 C   0  0  0  0  0  0  0  0  0  0  0  0
    3.5500   -0.8417    0.0000 C   0  0  0  0  0  0  0  0  0  0  0  0
    3.5500   -1.6667    0.0000 C   0  0  0  0  0  0  0  0  0  0  0  0
    6.4042   -1.6542    0.0000 N   0  0  0  0  0  0  0  0  0  0  0  0
    2.1292   -3.3042    0.0000 C   0  0  0  0  0  0  0  0  0  0  0  0
    2.8417   -2.8917    0.0000 O   0  0  0  0  0  0  0  0  0  0  0  0
    3.6667    0.1625    0.0000 O   0  0  0  0  0  0  0  0  0  0  0  0
    4.8417    0.1625    0.0000 O   0  0  0  0  0  0  0  0  0  0  0  0
    4.2667   -2.9000    0.0000 O   0  0  0  0  0  0  0  0  0  0  0  0
    7.1167   -2.0667    0.0000 C   0  0  0  0  0  0  0  0  0  0  0  0
    3.5542   -3.3042    0.0000 C   0  0  0  0  0  0  0  0  0  0  0  0
    5.6917   -2.8917    0.0000 O   0  0  0  0  0  0  0  0  0  0  0  0
    7.1125   -2.8875    0.0000 N   0  0  0  0  0  0  0  0  0  0  0  0
    2.1250   -4.1292    0.0000 O   0  0  0  0  0  0  0  0  0  0  0  0
    5.6875   -0.4167    0.0000 C   0  0  0  0  0  0  0  0  0  0  0  0
    1.4167   -2.8917    0.0000 O   0  0  0  0  0  0  0  0  0  0  0  0
    2.8333   -2.0833    0.0000 C   0  0  0  0  0  0  0  0  0  0  0  0
    2.8333   -0.4292    0.0000 C   0  0  0  0  0  0  0  0  0  0  0  0
    7.8250   -3.2958    0.0000 C   0  0  0  0  0  0  0  0  0  0  0  0
    3.5500   -4.1292    0.0000 C   0  0  0  0  0  0  0  0  0  0  0  0
    7.8208   -1.6542    0.0000 C   0  0  0  0  0  0  0  0  0  0  0  0
    0.7042   -3.3000    0.0000 C   0  0  0  0  0  0  0  0  0  0  0  0
    2.1208   -1.6708    0.0000 C   0  0  0  0  0  0  0  0  0  0  0  0
    2.1208   -0.8417    0.0000 C   0  0  0  0  0  0  0  0  0  0  0  0
   -0.0125   -2.8833    0.0000 C   0  0  0  0  0  0  0  0  0  0  0  0
    8.5375   -2.8833    0.0000 C   0  0  0  0  0  0  0  0  0  0  0  0
    8.5333   -2.0583    0.0000 C   0  0  0  0  0  0  0  0  0  0  0  0
  2  1  1  0
  3  2  1  0
  4  7  1  0
  5  3  1  0
  6  1  1  0
  7  6  2  0
  8  5  1  0
  9 10  1  0
 10 15  1  0
 11  1  2  0
 12  1  2  0
 13  4  1  0
 14  8  1  0
 15 13  1  0
 16  5  2  0
 17 14  2  0
 18  9  2  0
 19  2  1  0
 20  9  1  0
 21  7  1  0
 22  6  1  0
 23 17  1  0
 24 15  1  0
 25 14  1  0
 26 20  1  0
 27 21  2  0
 28 22  2  0
 29 26  1  0
 30 23  2  0
 31 25  2  0
  3  4  2  0
 27 28  1  0
 31 30  1  0
M  END
>  <ID>  (1452) 


>  <MOLENAME>  (1452) 
AMPIROXICAM

>  <therap>  (1452) 
antiinflammatory, analgesic

>  <ref>  (1452) 
Clin Pharmacokinet 26:107 (1994). Agents Actions. 39:157 (1993).

>  <cas#>  (1452) 
99464-64-9

>  <source>  (1452) 
synthetic; CP-65703

>  <status>  (1452) 
INN, BAN, JAN

>  <tradename>  (1452) 
FLUCAM

>  <SMILES>  (1452) 
CCOC(=O)OC(C)OC1=C(C(=O)Nc2ncccc2)N(C)S(=O)(=O)c2c1cccc2

>  <standardized_failed>  (1452) 
False

$$$$

     RDKit          2D

 12 12  0  0  0  0  0  0  0  0999 V2000
    5.8250   -0.6875    0.0000 C   0  0  0  0  0  0  0  0  0  0  0  0
    5.0042   -0.6875    0.0000 C   0  0  0  0  0  0  0  0  0  0  0  0
    6.2292    0.0333    0.0000 S   0  0  0  0  0  0  0  0  0  0  0  0
    3.3542   -0.6917    0.0000 N   0  0  0  0  0  0  0  0  0  0  0  0
    4.5917    0.0250    0.0000 C   0  0  0  0  0  0  0  0  0  0  0  0
    3.7667    0.0208    0.0000 C   0  0  0  0  0  0  0  0  0  0  0  0
    6.2375   -1.4000    0.0000 N   0  0  0  0  0  0  0  0  0  0  0  0
    3.7667   -1.4000    0.0000 C   0  0  0  0  0  0  0  0  0  0  0  0
    4.5917   -1.4000    0.0000 C   0  0  0  0  0  0  0  0  0  0  0  0
    3.3542    0.7333    0.0000 C   0  0  0  0  0  0  0  0  0  0  0  0
    2.5292    0.7333    0.0000 C   0  0  0  0  0  0  0  0  0  0  0  0
    2.1167    1.4458    0.0000 C   0  0  0  0  0  0  0  0  0  0  0  0
  2  1  1  0
  3  1  2  0
  4  8  1  0
  5  2  2  0
  6  5  1  0
  7  1  1  0
  8  9  2  0
  9  2  1  0
 10  6  1  0
 11 10  1  0
 12 11  1  0
  4  6  2  0
M  END
>  <ID>  (1453) 


>  <MOLENAME>  (1453) 
PROTIONAMIDE

>  <therap>  (1453) 
antibacterial

>  <ref>  (1453) 
Chemotherapy 26:276 (1980)

>  <cas#>  (1453) 
14222-60-7

>  <source>  (1453) 
synthetic; TH-1321, RP-9778

>  <status>  (1453) 
INN, BAN, JAN

>  <tradename>  (1453) 
EKTEBIN

>  <SMILES>  (1453) 
CCCc1nccc(C(N)=S)c1

>  <standardized_failed>  (1453) 
False

$$$$

     RDKit          2D

 18 18  0  0  0  0  0  0  0  0999 V2000
    1.4167   -0.8417    0.0000 N   0  0  0  0  0  0  0  0  0  0  0  0
    1.4167   -1.6667    0.0000 C   0  0  0  0  0  0  0  0  0  0  0  0
    0.7042   -2.0792    0.0000 N   0  0  0  0  0  0  0  0  0  0  0  0
    0.7042   -0.4292    0.0000 C   0  0  0  0  0  0  0  0  0  0  0  0
   -0.0083   -0.8417    0.0000 C   0  0  0  0  0  0  0  0  0  0  0  0
   -0.0083   -1.6667    0.0000 C   0  0  0  0  0  0  0  0  0  0  0  0
    2.1292   -0.4292    0.0000 C   0  0  0  0  0  0  0  0  0  0  0  0
    2.1292   -2.0792    0.0000 O   0  0  0  0  0  0  0  0  0  0  0  0
   -0.7250   -2.0792    0.0000 O   0  0  0  0  0  0  0  0  0  0  0  0
    2.1292    0.3958    0.0000 O   0  0  0  0  0  0  0  0  0  0  0  0
   -0.7208   -0.4292    0.0000 F   0  0  0  0  0  0  0  0  0  0  0  0
    2.8417   -0.8375    0.0000 N   0  0  0  0  0  0  0  0  0  0  0  0
    3.5542   -0.4250    0.0000 C   0  0  0  0  0  0  0  0  0  0  0  0
    4.2667   -0.8292    0.0000 C   0  0  0  0  0  0  0  0  0  0  0  0
    6.4042   -0.4167    0.0000 C   0  0  0  0  0  0  0  0  0  0  0  0
    5.6917   -0.8292    0.0000 C   0  0  0  0  0  0  0  0  0  0  0  0
    4.9792   -0.4167    0.0000 C   0  0  0  0  0  0  0  0  0  0  0  0
    7.1167   -0.8250    0.0000 C   0  0  0  0  0  0  0  0  0  0  0  0
  2  1  1  0
  3  2  1  0
  4  1  1  0
  5  4  2  0
  6  5  1  0
  7  1  1  0
  8  2  2  0
  9  6  2  0
 10  7  2  0
 11  5  1  0
 12  7  1  0
 13 12  1  0
 14 13  1  0
 15 16  1  0
 16 17  1  0
 17 14  1  0
 18 15  1  0
  3  6  1  0
M  END
>  <ID>  (1454) 


>  <MOLENAME>  (1454) 
CARMOFUR

>  <therap>  (1454) 
antineoplastic

>  <ref>  (1454) 
Am J Clin Oncology 13:477 (1990)

>  <cas#>  (1454) 
61422-45-5

>  <source>  (1454) 
synthetic

>  <status>  (1454) 
INN, JAN

>  <tradename>  (1454) 
nan

>  <SMILES>  (1454) 
CCCCCCNC(=O)n1cc(F)c(=O)[nH]c1=O

>  <standardized_failed>  (1454) 
False

$$$$

     RDKit          2D

 17 18  0  0  0  0  0  0  0  0999 V2000
    3.1750   -2.0417    0.0000 C   0  0  0  0  0  0  0  0  0  0  0  0
    3.1750   -1.2167    0.0000 C   0  0  0  0  0  0  0  0  0  0  0  0
    2.4542   -2.4542    0.0000 N   0  0  0  0  0  0  0  0  0  0  0  0
    1.7417   -1.2167    0.0000 N   0  0  0  0  0  0  0  0  0  0  0  0
    1.7417   -2.0417    0.0000 C   0  0  0  0  0  0  0  0  0  0  0  0
    2.4542   -0.8042    0.0000 C   0  0  0  0  0  0  0  0  0  0  0  0
    3.9542   -2.2917    0.0000 N   0  0  0  0  0  0  0  0  0  0  0  0
    3.9542   -0.9542    0.0000 N   0  0  0  0  0  0  0  0  0  0  0  0
    4.4417   -1.6292    0.0000 C   0  0  0  0  0  0  0  0  0  0  0  0
    1.0292   -2.4542    0.0000 O   0  0  0  0  0  0  0  0  0  0  0  0
    2.4542    0.0208    0.0000 O   0  0  0  0  0  0  0  0  0  0  0  0
    4.2125   -0.1750    0.0000 C   0  0  0  0  0  0  0  0  0  0  0  0
    2.4625   -3.2792    0.0000 C   0  0  0  0  0  0  0  0  0  0  0  0
    1.0292   -0.8042    0.0000 C   0  0  0  0  0  0  0  0  0  0  0  0
    5.0167   -0.0042    0.0000 C   0  0  0  0  0  0  0  0  0  0  0  0
    5.2750    0.7833    0.0000 O   0  0  0  0  0  0  0  0  0  0  0  0
    5.5750   -0.6167    0.0000 C   0  0  0  0  0  0  0  0  0  0  0  0
  2  1  2  0
  3  1  1  0
  4  5  1  0
  5  3  1  0
  6  2  1  0
  7  1  1  0
  8  2  1  0
  9  7  2  0
 10  5  2  0
 11  6  2  0
 12  8  1  0
 13  3  1  0
 14  4  1  0
 15 12  1  0
 16 15  1  0
 17 15  1  0
  8  9  1  0
  4  6  1  0
M  END
>  <ID>  (1455) 


>  <MOLENAME>  (1455) 
PROXYPHYLLINE

>  <therap>  (1455) 
PDE inhibitor, bronchodilator, vasodilator

>  <ref>  (1455) 
Eur J Clin Pharmacol 19:149 (1981); Int J Pharmaceutics 38:139 (1987)

>  <cas#>  (1455) 
6003-00-9

>  <source>  (1455) 
synthetic

>  <status>  (1455) 
INN, BAN, JAN

>  <tradename>  (1455) 
BRONTYL

>  <SMILES>  (1455) 
CC(O)Cn1cnc2c1c(=O)n(C)c(=O)n2C

>  <standardized_failed>  (1455) 
False

$$$$

     RDKit          2D

 22 23  0  0  0  0  0  0  0  0999 V2000
    3.0750   -1.8125    0.0000 C   0  0  0  0  0  0  0  0  0  0  0  0
    5.9542   -3.9500    0.0000 C   0  0  0  0  0  0  0  0  0  0  0  0
    6.7792   -3.9417    0.0000 N   0  0  0  0  0  0  0  0  0  0  0  0
    3.4792   -1.0917    0.0000 O   0  0  0  0  0  0  0  0  0  0  0  0
    5.5417   -3.2375    0.0000 C   0  0  0  0  0  0  0  0  0  0  0  0
    0.6042   -1.8167    0.0000 N   0  0  0  0  0  0  0  0  0  0  0  0
    2.2542   -1.8125    0.0000 C   0  0  0  0  0  0  0  0  0  0  0  0
    5.5417   -4.6625    0.0000 O   0  0  0  0  0  0  0  0  0  0  0  0
    3.4875   -2.5250    0.0000 N   0  0  0  0  0  0  0  0  0  0  0  0
    4.3042   -2.5250    0.0000 N   0  0  0  0  0  0  0  0  0  0  0  0
    7.1875   -3.2292    0.0000 C   0  0  0  0  0  0  0  0  0  0  0  0
    8.0125   -3.2292    0.0000 C   0  0  0  0  0  0  0  0  0  0  0  0
    4.7167   -3.2375    0.0000 C   0  0  0  0  0  0  0  0  0  0  0  0
    1.0167   -2.5250    0.0000 C   0  0  0  0  0  0  0  0  0  0  0  0
    1.0167   -1.1042    0.0000 C   0  0  0  0  0  0  0  0  0  0  0  0
    1.8417   -1.1000    0.0000 C   0  0  0  0  0  0  0  0  0  0  0  0
    1.8417   -2.5250    0.0000 C   0  0  0  0  0  0  0  0  0  0  0  0
    8.4250   -3.9417    0.0000 C   0  0  0  0  0  0  0  0  0  0  0  0
    8.4167   -2.5167    0.0000 C   0  0  0  0  0  0  0  0  0  0  0  0
    9.2417   -2.5125    0.0000 C   0  0  0  0  0  0  0  0  0  0  0  0
    9.2500   -3.9417    0.0000 C   0  0  0  0  0  0  0  0  0  0  0  0
    9.6625   -3.2292    0.0000 C   0  0  0  0  0  0  0  0  0  0  0  0
  2  5  1  0
  3  2  1  0
  4  1  2  0
  5 13  1  0
  6 14  2  0
  7  1  1  0
  8  2  2  0
  9  1  1  0
 10  9  1  0
 11  3  1  0
 12 11  1  0
 13 10  1  0
 14 17  1  0
 15 16  2  0
 16  7  1  0
 17  7  2  0
 18 12  2  0
 19 12  1  0
 20 19  2  0
 21 18  1  0
 22 20  1  0
  6 15  1  0
 22 21  2  0
M  END
>  <ID>  (1456) 


>  <MOLENAME>  (1456) 
NIALAMIDE

>  <therap>  (1456) 
MAO inhibitor

>  <ref>  (1456) 
Toxicol Appl Pharmacol 1:524; Acta Neurologica Belgica 60:320 (1960); Lyon Medical 215:1051 (1966)

>  <cas#>  (1456) 
51-12-7

>  <source>  (1456) 
synthetic

>  <status>  (1456) 
 INN, BAN, NF-VIII

>  <tradename>  (1456) 
NIAMID

>  <SMILES>  (1456) 
O=C(CCNNC(=O)c1ccncc1)NCc1ccccc1

>  <standardized_failed>  (1456) 
False

$$$$

     RDKit          2D

 28 30  0  0  0  0  0  0  0  0999 V2000
    6.1042   -0.8292    0.0000 C   0  0  0  0  0  0  0  0  0  0  0  0
    6.0167   -1.6417    0.0000 C   0  0  0  0  0  0  0  0  0  0  0  0
    5.3542   -0.4917    0.0000 N   0  0  0  0  0  0  0  0  0  0  0  0
    5.2167   -1.8167    0.0000 C   0  0  0  0  0  0  0  0  0  0  0  0
    4.8042   -1.1042    0.0000 N   0  0  0  0  0  0  0  0  0  0  0  0
    6.8167   -0.4167    0.0000 C   0  0  0  0  0  0  0  0  0  0  0  0
    7.5292   -0.8250    0.0000 N   0  0  0  0  0  0  0  0  0  0  0  0
    4.8792   -2.5667    0.0000 O   0  0  0  0  0  0  0  0  0  0  0  0
    3.9875   -1.0167    0.0000 C   0  0  0  0  0  0  0  0  0  0  0  0
    6.6292   -2.1917    0.0000 C   0  0  0  0  0  0  0  0  0  0  0  0
    8.2417   -0.4125    0.0000 C   0  0  0  0  0  0  0  0  0  0  0  0
    8.9542   -0.8167    0.0000 C   0  0  0  0  0  0  0  0  0  0  0  0
    5.1792    0.3125    0.0000 C   0  0  0  0  0  0  0  0  0  0  0  0
    9.6667   -0.4042    0.0000 C   0  0  0  0  0  0  0  0  0  0  0  0
    7.5292   -1.6500    0.0000 C   0  0  0  0  0  0  0  0  0  0  0  0
    8.2417    0.4125    0.0000 C   0  0  0  0  0  0  0  0  0  0  0  0
    3.5042   -1.6875    0.0000 C   0  0  0  0  0  0  0  0  0  0  0  0
    3.6500   -0.2667    0.0000 C   0  0  0  0  0  0  0  0  0  0  0  0
    7.4167   -1.9417    0.0000 C   0  0  0  0  0  0  0  0  0  0  0  0
    6.4625   -3.0042    0.0000 C   0  0  0  0  0  0  0  0  0  0  0  0
   10.3792   -0.8167    0.0000 C   0  0  0  0  0  0  0  0  0  0  0  0
    9.6667    0.4125    0.0000 C   0  0  0  0  0  0  0  0  0  0  0  0
    2.8292   -0.1792    0.0000 C   0  0  0  0  0  0  0  0  0  0  0  0
    2.6875   -1.6042    0.0000 C   0  0  0  0  0  0  0  0  0  0  0  0
   10.3750    0.8250    0.0000 C   0  0  0  0  0  0  0  0  0  0  0  0
   11.0917   -0.4042    0.0000 C   0  0  0  0  0  0  0  0  0  0  0  0
    2.3417   -0.8500    0.0000 C   0  0  0  0  0  0  0  0  0  0  0  0
   11.0917    0.4208    0.0000 C   0  0  0  0  0  0  0  0  0  0  0  0
  2  1  2  0
  3  1  1  0
  4  2  1  0
  5  3  1  0
  6  1  1  0
  7  6  1  0
  8  4  2  0
  9  5  1  0
 10  2  1  0
 11  7  1  0
 12 11  1  0
 13  3  1  0
 14 12  1  0
 15  7  1  0
 16 11  1  0
 17  9  2  0
 18  9  1  0
 19 10  1  0
 20 10  1  0
 21 14  2  0
 22 14  1  0
 23 18  2  0
 24 17  1  0
 25 22  2  0
 26 21  1  0
 27 23  1  0
 28 25  1  0
  5  4  1  0
 24 27  2  0
 26 28  2  0
M  END
>  <ID>  (1457) 


>  <MOLENAME>  (1457) 
FAMPROFAZONE

>  <therap>  (1457) 
analgesic, antipyretic, CNS stimulant

>  <ref>  (1457) 
J Forensic Sci 52:479 (2007)

>  <cas#>  (1457) 
22881-35-2

>  <source>  (1457) 
synthetic

>  <status>  (1457) 
INN, BAN

>  <tradename>  (1457) 
nan

>  <SMILES>  (1457) 
CC(C)c1c(CN(C)C(C)Cc2ccccc2)n(C)n(-c2ccccc2)c1=O

>  <standardized_failed>  (1457) 
False

$$$$

     RDKit          2D

 13 13  0  0  0  0  0  0  0  0999 V2000
    3.3792   -2.1417    0.0000 C   0  0  0  0  0  0  0  0  0  0  0  0
    3.0042   -2.7917    0.0000 C   0  0  0  0  0  0  0  0  0  0  0  0
    3.0042   -1.5000    0.0000 C   0  0  0  0  0  0  0  0  0  0  0  0
    2.2542   -2.7917    0.0000 C   0  0  0  0  0  0  0  0  0  0  0  0
    2.2542   -1.5000    0.0000 C   0  0  0  0  0  0  0  0  0  0  0  0
    4.1292   -2.1417    0.0000 C   0  0  0  0  0  0  0  0  0  0  0  0
    1.8792   -2.1417    0.0000 C   0  0  0  0  0  0  0  0  0  0  0  0
    4.5042   -1.4917    0.0000 O   0  0  0  0  0  0  0  0  0  0  0  0
    3.3917   -0.8417    0.0000 O   0  0  0  0  0  0  0  0  0  0  0  0
    3.3875   -3.4500    0.0000 O   0  0  0  0  0  0  0  0  0  0  0  0
    1.1292   -2.1417    0.0000 O   0  0  0  0  0  0  0  0  0  0  0  0
    4.5042   -2.7917    0.0000 C   0  0  0  0  0  0  0  0  0  0  0  0
    4.1292   -3.4417    0.0000 C   0  0  0  0  0  0  0  0  0  0  0  0
  2  1  2  0
  3  1  1  0
  4  2  1  0
  5  3  2  0
  6  1  1  0
  7  5  1  0
  8  6  2  0
  9  3  1  0
 10  2  1  0
 11  7  1  0
 12  6  1  0
 13 12  1  0
  4  7  2  0
M  END
>  <ID>  (1458) 


>  <MOLENAME>  (1458) 
FLOPROPIONE

>  <therap>  (1458) 
antispasmodic

>  <ref>  (1458) 
Agric. Biol. Chem. (1985), 49(3), 719-24; Jpn. J. Pharmacol. (1977), 27(1), 71-8; Jpn. J. Pharmacol. (1969), 19(2), 224-33

>  <cas#>  (1458) 
2295-58-1

>  <source>  (1458) 
synthetic

>  <status>  (1458) 
INN, JAN

>  <tradename>  (1458) 
nan

>  <SMILES>  (1458) 
CCC(=O)c1c(O)cc(O)cc1O

>  <standardized_failed>  (1458) 
False

$$$$

     RDKit          2D

 29 31  0  0  0  0  0  0  0  0999 V2000
    3.4875   -2.1292    0.0000 N   0  0  0  0  0  0  0  0  0  0  0  0
    3.9250   -2.7417    0.0000 C   0  0  0  0  0  0  0  0  0  0  0  0
    3.4875   -3.3417    0.0000 C   0  0  0  0  0  0  0  0  0  0  0  0
    2.7750   -2.3625    0.0000 C   0  0  0  0  0  0  0  0  0  0  0  0
    2.7750   -3.1125    0.0000 C   0  0  0  0  0  0  0  0  0  0  0  0
    3.7167   -1.4167    0.0000 C   0  0  0  0  0  0  0  0  0  0  0  0
    3.7250   -4.0625    0.0000 C   0  0  0  0  0  0  0  0  0  0  0  0
    2.1292   -1.9875    0.0000 C   0  0  0  0  0  0  0  0  0  0  0  0
    4.4542   -1.2542    0.0000 C   0  0  0  0  0  0  0  0  0  0  0  0
    4.4542   -4.2167    0.0000 C   0  0  0  0  0  0  0  0  0  0  0  0
    2.1292   -3.4875    0.0000 C   0  0  0  0  0  0  0  0  0  0  0  0
    5.6542   -5.8042    0.0000 C   0  0  0  0  0  0  0  0  0  0  0  0
    3.2167   -0.8542    0.0000 O   0  0  0  0  0  0  0  0  0  0  0  0
    4.9542   -3.6625    0.0000 O   0  0  0  0  0  0  0  0  0  0  0  0
    5.1542   -6.3625    0.0000 O   0  0  0  0  0  0  0  0  0  0  0  0
    4.6917   -4.9292    0.0000 O   0  0  0  0  0  0  0  0  0  0  0  0
    4.9542   -1.8125    0.0000 C   0  0  0  0  0  0  0  0  0  0  0  0
    4.6917   -0.5417    0.0000 C   0  0  0  0  0  0  0  0  0  0  0  0
    4.6750   -2.7542    0.0000 C   0  0  0  0  0  0  0  0  0  0  0  0
    1.4792   -3.1125    0.0000 C   0  0  0  0  0  0  0  0  0  0  0  0
    5.4250   -5.0917    0.0000 C   0  0  0  0  0  0  0  0  0  0  0  0
    1.4792   -2.3625    0.0000 C   0  0  0  0  0  0  0  0  0  0  0  0
    5.9292   -0.9542    0.0000 C   0  0  0  0  0  0  0  0  0  0  0  0
    6.3917   -5.9542    0.0000 O   0  0  0  0  0  0  0  0  0  0  0  0
    5.4250   -0.3875    0.0000 C   0  0  0  0  0  0  0  0  0  0  0  0
    5.6917   -1.6625    0.0000 C   0  0  0  0  0  0  0  0  0  0  0  0
    6.6667   -0.8125    0.0000 Cl  0  0  0  0  0  0  0  0  0  0  0  0
    0.8250   -3.4917    0.0000 O   0  0  0  0  0  0  0  0  0  0  0  0
    0.1750   -3.1167    0.0000 C   0  0  0  0  0  0  0  0  0  0  0  0
  2  1  1  0
  3  2  2  0
  4  1  1  0
  5  4  2  0
  6  1  1  0
  7  3  1  0
  8  4  1  0
  9  6  1  0
 10  7  1  0
 11  5  1  0
 12 21  1  0
 13  6  2  0
 14 10  2  0
 15 12  2  0
 16 10  1  0
 17  9  2  0
 18  9  1  0
 19  2  1  0
 20 22  1  0
 21 16  1  0
 22  8  2  0
 23 25  1  0
 24 12  1  0
 25 18  2  0
 26 17  1  0
 27 23  1  0
 28 20  1  0
 29 28  1  0
  3  5  1  0
 23 26  2  0
 20 11  2  0
M  END
>  <ID>  (1459) 


>  <MOLENAME>  (1459) 
ACEMETACIN

>  <therap>  (1459) 
antiinflammatory

>  <ref>  (1459) 
Arzneim Forsch 30:314, 348 (1980); Proc West Pharmacol Soc 45:104 (2002); Annals Hepatol 8:141 (2009)

>  <cas#>  (1459) 
53164-05-9

>  <source>  (1459) 
synthetic

>  <status>  (1459) 
INN, BAN, JAN

>  <tradename>  (1459) 
EMFLEX

>  <SMILES>  (1459) 
COc1cc2c(cc1)n(C(=O)c1ccc(Cl)cc1)c(C)c2CC(=O)OCC(=O)O

>  <standardized_failed>  (1459) 
False

$$$$

     RDKit          2D

 20 21  0  0  0  0  0  0  0  0999 V2000
    4.2917   -2.5917    0.0000 C   0  0  0  0  0  0  0  0  0  0  0  0
    3.5750   -2.1792    0.0000 C   0  0  0  0  0  0  0  0  0  0  0  0
    6.4042   -4.6292    0.0000 C   0  0  0  0  0  0  0  0  0  0  0  0
    3.5667   -1.3542    0.0000 C   0  0  0  0  0  0  0  0  0  0  0  0
    5.0042   -2.1750    0.0000 N   0  0  0  0  0  0  0  0  0  0  0  0
    6.4042   -3.8042    0.0000 C   0  0  0  0  0  0  0  0  0  0  0  0
    4.2917   -3.4167    0.0000 N   0  0  0  0  0  0  0  0  0  0  0  0
    5.6792   -2.5750    0.0000 C   0  0  0  0  0  0  0  0  0  0  0  0
    5.6875   -3.3917    0.0000 C   0  0  0  0  0  0  0  0  0  0  0  0
    2.8542   -0.9417    0.0000 O   0  0  0  0  0  0  0  0  0  0  0  0
    6.4042   -5.4542    0.0000 F   0  0  0  0  0  0  0  0  0  0  0  0
    5.6917   -5.0500    0.0000 F   0  0  0  0  0  0  0  0  0  0  0  0
    7.1167   -5.0417    0.0000 F   0  0  0  0  0  0  0  0  0  0  0  0
    4.2875   -0.9417    0.0000 O   0  0  0  0  0  0  0  0  0  0  0  0
    2.8625   -2.5917    0.0000 C   0  0  0  0  0  0  0  0  0  0  0  0
    7.1167   -3.3917    0.0000 C   0  0  0  0  0  0  0  0  0  0  0  0
    7.1125   -2.5667    0.0000 C   0  0  0  0  0  0  0  0  0  0  0  0
    3.5750   -3.8292    0.0000 C   0  0  0  0  0  0  0  0  0  0  0  0
    6.3917   -2.1542    0.0000 C   0  0  0  0  0  0  0  0  0  0  0  0
    2.8625   -3.4167    0.0000 C   0  0  0  0  0  0  0  0  0  0  0  0
  2  1  2  0
  3  6  1  0
  4  2  1  0
  5  1  1  0
  6  9  2  0
  7  1  1  0
  8  5  1  0
  9  8  1  0
 10  4  2  0
 11  3  1  0
 12  3  1  0
 13  3  1  0
 14  4  1  0
 15  2  1  0
 16 17  2  0
 17 19  1  0
 18  7  2  0
 19  8  2  0
 20 18  1  0
 15 20  2  0
  6 16  1  0
M  END
>  <ID>  (1460) 


>  <MOLENAME>  (1460) 
NIFLUMIC ACID

>  <therap>  (1460) 
analgesic, antiinflammatory

>  <ref>  (1460) 
Brit J Pharmacol 120:813 (1997); Arch Dis Child 84:430 (2001)

>  <cas#>  (1460) 
4394-00-7

>  <source>  (1460) 
synthetic; UP-83

>  <status>  (1460) 
INN

>  <tradename>  (1460) 
nan

>  <SMILES>  (1460) 
O=C(O)c1c(Nc2cccc(C(F)(F)F)c2)nccc1

>  <standardized_failed>  (1460) 
False

$$$$

     RDKit          2D

  8  7  0  0  0  0  0  0  0  0999 V2000
    4.2792   -0.3792    0.0000 C   0  0  0  0  0  0  0  0  0  0  0  0
    3.5667   -0.7917    0.0000 C   0  0  0  0  0  0  0  0  0  0  0  0
    4.2792    0.4458    0.0000 O   0  0  0  0  0  0  0  0  0  0  0  0
    5.0000   -0.7917    0.0000 O   0  0  0  0  0  0  0  0  0  0  0  0
    3.5667   -1.6250    0.0000 C   0  0  0  0  0  0  0  0  0  0  0  0
    4.3000   -2.6542    0.0000 N   0  0  0  0  0  0  0  0  0  0  0  0
    2.8542   -2.0375    0.0000 O   0  0  0  0  0  0  0  0  0  0  0  0
    4.2875   -2.0375    0.0000 C   0  0  0  0  0  0  0  0  0  0  0  0
  2  1  1  0
  3  1  2  0
  4  1  1  0
  5  2  1  0
  6  8  1  0
  7  5  1  0
  8  5  1  0
M  END
>  <ID>  (1461) 


>  <MOLENAME>  (1461) 
AMINOHYDROXYBUTYRIC ACID

>  <therap>  (1461) 
antiepileptic

>  <ref>  (1461) 
J Clin Endocrinol Metab 47:1336 (1978); J Neurosci 1:132 (1981); Stereotactic Functional Neurosurgery 69:243 (1997)

>  <cas#>  (1461) 
924-49-2

>  <source>  (1461) 
synthetic

>  <status>  (1461) 
JAN

>  <tradename>  (1461) 
GAMIBETAL

>  <SMILES>  (1461) 
NCC(O)CC(=O)O

>  <standardized_failed>  (1461) 
False

$$$$

     RDKit          2D

 20 21  0  0  0  0  0  0  0  0999 V2000
    3.4417   -1.7667    0.0000 C   0  0  0  0  0  0  0  0  0  0  0  0
    3.0667   -2.4167    0.0000 C   0  0  0  0  0  0  0  0  0  0  0  0
    2.3167   -2.4167    0.0000 C   0  0  0  0  0  0  0  0  0  0  0  0
    4.1917   -1.7667    0.0000 C   0  0  0  0  0  0  0  0  0  0  0  0
    1.9417   -3.0667    0.0000 C   0  0  0  0  0  0  0  0  0  0  0  0
    4.5667   -1.1167    0.0000 C   0  0  0  0  0  0  0  0  0  0  0  0
    1.9417   -1.7667    0.0000 C   0  0  0  0  0  0  0  0  0  0  0  0
    4.5667   -2.4125    0.0000 C   0  0  0  0  0  0  0  0  0  0  0  0
    5.6917   -1.7667    0.0000 C   0  0  0  0  0  0  0  0  0  0  0  0
    0.8167   -2.4167    0.0000 C   0  0  0  0  0  0  0  0  0  0  0  0
    5.3167   -2.4125    0.0000 C   0  0  0  0  0  0  0  0  0  0  0  0
    1.1917   -3.0667    0.0000 C   0  0  0  0  0  0  0  0  0  0  0  0
    1.1917   -1.7667    0.0000 C   0  0  0  0  0  0  0  0  0  0  0  0
    5.3167   -1.1167    0.0000 C   0  0  0  0  0  0  0  0  0  0  0  0
    6.4417   -1.7667    0.0000 O   0  0  0  0  0  0  0  0  0  0  0  0
    0.0667   -2.4167    0.0000 O   0  0  0  0  0  0  0  0  0  0  0  0
    3.4417   -3.0625    0.0000 C   0  0  0  0  0  0  0  0  0  0  0  0
    3.0667   -1.1167    0.0000 C   0  0  0  0  0  0  0  0  0  0  0  0
    4.1917   -3.0625    0.0000 C   0  0  0  0  0  0  0  0  0  0  0  0
    3.4417   -0.4667    0.0000 C   0  0  0  0  0  0  0  0  0  0  0  0
  2  1  1  0
  3  2  1  0
  4  1  1  0
  5  3  2  0
  6  4  2  0
  7  3  1  0
  8  4  1  0
  9 11  1  0
 10 13  1  0
 11  8  2  0
 12  5  1  0
 13  7  2  0
 14  6  1  0
 15  9  1  0
 16 10  1  0
 17  2  1  0
 18  1  1  0
 19 17  1  0
 20 18  1  0
 14  9  2  0
 12 10  2  0
M  END
>  <ID>  (1462) 


>  <MOLENAME>  (1462) 
HEXESTROL

>  <therap>  (1462) 
estrogen, antineoplastic (hormonal)

>  <ref>  (1462) 
Am J Obst & Gynec 51:660 (1946); Acta Anatomica 23:180 (1955); PNAS 58:2329 (1967)

>  <cas#>  (1462) 
84-16-2

>  <source>  (1462) 
synthetic; NSC-9894

>  <status>  (1462) 
NF-XI, INN

>  <tradename>  (1462) 
nan

>  <SMILES>  (1462) 
CCC(c1ccc(O)cc1)C(CC)c1ccc(O)cc1

>  <standardized_failed>  (1462) 
False

$$$$

     RDKit          2D

 21 23  0  0  0  0  0  0  0  0999 V2000
    2.6125   -0.0250    0.0000 O   0  0  0  0  0  0  0  0  0  0  0  0
    1.9000   -0.4375    0.0000 C   0  0  0  0  0  0  0  0  0  0  0  0
    1.9000   -1.2625    0.0000 C   0  0  0  0  0  0  0  0  0  0  0  0
    3.3292   -0.4375    0.0000 C   0  0  0  0  0  0  0  0  0  0  0  0
    2.6125   -1.6750    0.0000 C   0  0  0  0  0  0  0  0  0  0  0  0
    1.1875   -1.6750    0.0000 C   0  0  0  0  0  0  0  0  0  0  0  0
    4.0417   -0.0292    0.0000 C   0  0  0  0  0  0  0  0  0  0  0  0
    3.3292   -1.2625    0.0000 C   0  0  0  0  0  0  0  0  0  0  0  0
    1.1875   -0.0250    0.0000 C   0  0  0  0  0  0  0  0  0  0  0  0
    0.4667   -1.2625    0.0000 C   0  0  0  0  0  0  0  0  0  0  0  0
    4.0417    0.8083    0.0000 C   0  0  0  0  0  0  0  0  0  0  0  0
    4.7542    1.2208    0.0000 C   0  0  0  0  0  0  0  0  0  0  0  0
    0.4667   -0.4375    0.0000 C   0  0  0  0  0  0  0  0  0  0  0  0
    5.4667    0.8083    0.0000 C   0  0  0  0  0  0  0  0  0  0  0  0
    4.7542   -0.4375    0.0000 C   0  0  0  0  0  0  0  0  0  0  0  0
    5.4667   -0.0250    0.0000 C   0  0  0  0  0  0  0  0  0  0  0  0
    1.1875   -2.5000    0.0000 O   0  0  0  0  0  0  0  0  0  0  0  0
    4.0500   -1.6792    0.0000 O   0  0  0  0  0  0  0  0  0  0  0  0
    4.7542    2.0458    0.0000 O   0  0  0  0  0  0  0  0  0  0  0  0
   -0.2500   -0.0250    0.0000 O   0  0  0  0  0  0  0  0  0  0  0  0
    6.1917    1.2250    0.0000 O   0  0  0  0  0  0  0  0  0  0  0  0
  2  1  1  0
  3  2  2  0
  4  1  1  6
  5  8  1  0
  6  3  1  0
  4  7  1  0
  8  4  1  0
  9  2  1  0
 10 13  1  0
 11  7  2  0
 12 11  1  0
 13  9  2  0
 14 16  1  0
 15  7  1  0
 16 15  2  0
 17  6  1  0
  8 18  1  1
 19 12  1  0
 20 13  1  0
 21 14  1  0
  5  3  1  0
 10  6  2  0
 12 14  2  0
M  END
>  <ID>  (1463) 


>  <MOLENAME>  (1463) 
CIANIDANOL

>  <therap>  (1463) 
procollagen production inhibitoe, hepatoprotectant

>  <ref>  (1463) 
Arch Surg 118:1431 (1983); Liver International 6:35 (1986)

>  <cas#>  (1463) 
154-23-4

>  <source>  (1463) 
tea and cocoa constituent; (+) catechin

>  <status>  (1463) 
INN, JAN

>  <tradename>  (1463) 
nan

>  <SMILES>  (1463) 
Oc1cc2c(C[C@H](O)[C@@H](c3cc(O)c(O)cc3)O2)c(O)c1

>  <standardized_failed>  (1463) 
False

$$$$

     RDKit          2D

  8  8  0  0  0  0  0  0  0  0999 V2000
    4.4500   -2.4500    0.0000 N   0  0  0  0  0  0  0  0  0  0  0  0
    4.4500   -1.6167    0.0000 C   0  0  0  0  0  0  0  0  0  0  0  0
    3.7292   -2.8625    0.0000 C   0  0  0  0  0  0  0  0  0  0  0  0
    3.7292   -1.2042    0.0000 N   0  0  0  0  0  0  0  0  0  0  0  0
    3.0167   -2.4500    0.0000 C   0  0  0  0  0  0  0  0  0  0  0  0
    5.1625   -1.2042    0.0000 S   0  0  0  0  0  0  0  0  0  0  0  0
    3.0167   -1.6250    0.0000 C   0  0  0  0  0  0  0  0  0  0  0  0
    3.7292   -3.6875    0.0000 O   0  0  0  0  0  0  0  0  0  0  0  0
  2  1  2  0
  3  1  1  0
  4  2  1  0
  5  3  2  0
  6  2  1  0
  7  5  1  0
  8  3  1  0
  4  7  2  0
M  END
>  <ID>  (1464) 


>  <MOLENAME>  (1464) 
2-THIOURACIL

>  <therap>  (1464) 
antiviral, thyroid depressant

>  <ref>  (1464) 
Nature 168:113 (1951); J Gen Microbiol 16:160 (1954); Proc Royal Soc B 169 89 (1967); J Gen Virol 56:219 (1981)

>  <cas#>  (1464) 
141-90-2

>  <source>  (1464) 
synthetic

>  <status>  (1464) 
BP-1948

>  <tradename>  (1464) 
nan

>  <SMILES>  (1464) 
Oc1ccnc(S)n1

>  <standardized_failed>  (1464) 
False

$$$$

     RDKit          2D

 18 19  0  0  0  0  0  0  0  0999 V2000
    5.3292   -4.2875    0.0000 C   0  0  0  0  0  0  0  0  0  0  0  0
    3.8958   -4.2958    0.0000 C   0  0  0  0  0  0  0  0  0  0  0  0
    4.6167   -4.7000    0.0000 C   0  0  0  0  0  0  0  0  0  0  0  0
    0.8833   -3.4917    0.0000 C   0  0  0  0  0  0  0  0  0  0  0  0
    1.0542   -4.3000    0.0000 C   0  0  0  0  0  0  0  0  0  0  0  0
    3.1875   -4.7042    0.0000 C   0  0  0  0  0  0  0  0  0  0  0  0
    1.7708   -4.7042    0.0000 C   0  0  0  0  0  0  0  0  0  0  0  0
    5.3250   -3.4625    0.0000 O   0  0  0  0  0  0  0  0  0  0  0  0
    2.4792   -4.2917    0.0000 C   0  0  0  0  0  0  0  0  0  0  0  0
    1.4375   -2.8792    0.0000 O   0  0  0  0  0  0  0  0  0  0  0  0
    6.0417   -4.6958    0.0000 O   0  0  0  0  0  0  0  0  0  0  0  0
    3.8958   -3.4792    0.0000 C   0  0  0  0  0  0  0  0  0  0  0  0
    0.0667   -3.4042    0.0000 C   0  0  0  0  0  0  0  0  0  0  0  0
    3.1833   -3.0708    0.0000 C   0  0  0  0  0  0  0  0  0  0  0  0
   -0.2708   -4.1542    0.0000 C   0  0  0  0  0  0  0  0  0  0  0  0
    0.3375   -4.7083    0.0000 C   0  0  0  0  0  0  0  0  0  0  0  0
    2.4792   -3.4792    0.0000 C   0  0  0  0  0  0  0  0  0  0  0  0
    4.6208   -5.5250    0.0000 C   0  0  0  0  0  0  0  0  0  0  0  0
  2  3  1  0
  3  1  1  0
  4  5  1  0
  5  7  1  0
  6  2  2  0
  7  9  1  0
  8  1  2  0
  9  6  1  0
 10  4  2  0
 11  1  1  0
 12  2  1  0
 13  4  1  0
 14 12  2  0
 15 16  1  0
 16  5  1  0
 17 14  1  0
 18  3  1  0
  9 17  2  0
 15 13  1  0
M  END
>  <ID>  (1465) 


>  <MOLENAME>  (1465) 
LOXOPROFEN

>  <therap>  (1465) 
antiinflammatory, analgesic

>  <ref>  (1465) 
Biochem. Pharmacol. (1991), 42(12), 2363-8; Biochem. Pharmacol. (1984), 33(15), 2473-8; J. Med. Chem. (1984), 27(2), 212-6

>  <cas#>  (1465) 
68767-14-6

>  <source>  (1465) 
synthetic; CS-600

>  <status>  (1465) 
INN, JAN

>  <tradename>  (1465) 
LOXONIN

>  <SMILES>  (1465) 
CC(C(=O)O)c1cc(CC2CCCC2=O)ccc1

>  <standardized_failed>  (1465) 
False

$$$$

     RDKit          2D

 15 15  0  0  0  0  0  0  0  0999 V2000
    2.9625   -5.4292    0.0000 C   0  0  0  0  0  0  0  0  0  0  0  0
    4.3917   -5.4292    0.0000 N   0  0  0  0  0  0  0  0  0  0  0  0
    3.6792   -5.0167    0.0000 C   0  0  0  0  0  0  0  0  0  0  0  0
    2.3542   -4.8750    0.0000 S   0  0  0  0  0  0  0  0  0  0  0  0
    5.1042   -5.0167    0.0000 C   0  0  0  0  0  0  0  0  0  0  0  0
    7.9542   -5.0042    0.0000 C   0  0  0  0  0  0  0  0  0  0  0  0
    2.8708   -6.2458    0.0000 O   0  0  0  0  0  0  0  0  0  0  0  0
    5.1000   -4.1917    0.0000 O   0  0  0  0  0  0  0  0  0  0  0  0
    7.9500   -4.1792    0.0000 O   0  0  0  0  0  0  0  0  0  0  0  0
    6.5292   -5.0125    0.0000 S   0  0  0  0  0  0  0  0  0  0  0  0
    3.5083   -4.2125    0.0000 C   0  0  0  0  0  0  0  0  0  0  0  0
    2.6917   -4.1250    0.0000 C   0  0  0  0  0  0  0  0  0  0  0  0
    8.6667   -5.4167    0.0000 O   0  0  0  0  0  0  0  0  0  0  0  0
    5.8167   -5.4250    0.0000 C   0  0  0  0  0  0  0  0  0  0  0  0
    7.2417   -5.4167    0.0000 C   0  0  0  0  0  0  0  0  0  0  0  0
  2  3  1  0
  3  1  1  0
  4  1  1  0
  5  2  1  0
  6 15  1  0
  7  1  2  0
  8  5  2  0
  9  6  2  0
 10 14  1  0
 11  3  1  0
 12  4  1  0
 13  6  1  0
 14  5  1  0
 15 10  1  0
 12 11  1  0
M  END
>  <ID>  (1466) 


>  <MOLENAME>  (1466) 
ERDOSTEINE

>  <therap>  (1466) 
mucolytic

>  <ref>  (1466) 
Expert Opin. Drug Metab. Toxicol. (2009), 5(3), 333-343; Lung (2008), 186(Suppl. 1), S70-S73; Drugs (1996), 52(6), 875-881

>  <cas#>  (1466) 
84611-23-4

>  <source>  (1466) 
synthetic; Rrv-144

>  <status>  (1466) 
INN

>  <tradename>  (1466) 
SECRESOLV

>  <SMILES>  (1466) 
O=C(O)CSCC(=O)NC1CCSC1=O

>  <standardized_failed>  (1466) 
False

$$$$

     RDKit          2D

 14 14  0  0  0  0  0  0  0  0999 V2000
    3.4125   -0.1917    0.0000 C   0  0  0  0  0  0  0  0  0  0  0  0
    4.1542   -0.1792    0.0000 C   0  0  0  0  0  0  0  0  0  0  0  0
    2.5750   -0.7875    0.0000 O   0  0  0  0  0  0  0  0  0  0  0  0
    4.5292    0.4625    0.0000 O   0  0  0  0  0  0  0  0  0  0  0  0
    2.5750   -1.5375    0.0000 C   0  0  0  0  0  0  0  0  0  0  0  0
    4.5375   -0.8292    0.0000 O   0  0  0  0  0  0  0  0  0  0  0  0
    2.5750   -3.0375    0.0000 C   0  0  0  0  0  0  0  0  0  0  0  0
    2.5750   -3.7917    0.0000 Cl  0  0  0  0  0  0  0  0  0  0  0  0
    1.9292   -1.9125    0.0000 C   0  0  0  0  0  0  0  0  0  0  0  0
    3.2250   -1.9125    0.0000 C   0  0  0  0  0  0  0  0  0  0  0  0
    3.2250   -2.6625    0.0000 C   0  0  0  0  0  0  0  0  0  0  0  0
    1.9292   -2.6625    0.0000 C   0  0  0  0  0  0  0  0  0  0  0  0
    3.0375    0.4583    0.0000 C   0  0  0  0  0  0  0  0  0  0  0  0
    3.7417    0.5083    0.0000 C   0  0  0  0  0  0  0  0  0  0  0  0
  2  1  1  0
  3  1  1  0
  4  2  2  0
  5  3  1  0
  6  2  1  0
  7 11  1  0
  8  7  1  0
  9  5  2  0
 10  5  1  0
 11 10  2  0
 12  9  1  0
 13  1  1  0
 14  1  1  0
  7 12  2  0
M  END
>  <ID>  (1467) 


>  <MOLENAME>  (1467) 
CLOFIBRIC ACID

>  <therap>  (1467) 
herbicide, antihyperlipoproteinemic, antineoplastic

>  <ref>  (1467) 
Biochem J285:167 (1992); Br J Pharmacol 134:719 (2001); Mol Cancer Ther 6:1379 (2007)

>  <cas#>  (1467) 
882-09-7

>  <source>  (1467) 
synthetic

>  <status>  (1467) 
INN

>  <tradename>  (1467) 
CLOFIBRIN

>  <SMILES>  (1467) 
CC(C)(Oc1ccc(Cl)cc1)C(=O)O

>  <standardized_failed>  (1467) 
False

$$$$

     RDKit          2D

 32 34  0  0  0  0  0  0  0  0999 V2000
   -2.8083   -7.5042    0.0000 N   0  0  0  0  0  0  0  0  0  0  0  0
   -2.0958   -6.2667    0.0000 N   0  0  0  0  0  0  0  0  0  0  0  0
   -1.3833   -7.5042    0.0000 C   0  0  0  0  0  0  0  0  0  0  0  0
   -1.3833   -6.6792    0.0000 C   0  0  0  0  0  0  0  0  0  0  0  0
   -2.0958   -7.9167    0.0000 C   0  0  0  0  0  0  0  0  0  0  0  0
   -2.8083   -6.6792    0.0000 C   0  0  0  0  0  0  0  0  0  0  0  0
   -0.6708   -7.9167    0.0000 N   0  0  0  0  0  0  0  0  0  0  0  0
    4.3500   -9.1792    0.0000 C   0  0  0  0  0  0  0  0  0  0  0  0
   -0.6708   -6.2667    0.0000 N   0  0  0  0  0  0  0  0  0  0  0  0
    5.0667   -8.7667    0.0000 N   0  0  0  0  0  0  0  0  0  0  0  0
    5.7750  -10.0125    0.0000 C   0  0  0  0  0  0  0  0  0  0  0  0
    5.7792   -9.1792    0.0000 C   0  0  0  0  0  0  0  0  0  0  0  0
    3.6292   -8.7542    0.0000 C   0  0  0  0  0  0  0  0  0  0  0  0
    0.0500   -7.5042    0.0000 C   0  0  0  0  0  0  0  0  0  0  0  0
    7.9417   -8.7875    0.0000 C   0  0  0  0  0  0  0  0  0  0  0  0
    4.3417  -10.0042    0.0000 O   0  0  0  0  0  0  0  0  0  0  0  0
    6.4875  -10.4250    0.0000 O   0  0  0  0  0  0  0  0  0  0  0  0
    1.4917   -7.5167    0.0000 N   0  0  0  0  0  0  0  0  0  0  0  0
    7.9500   -7.9542    0.0000 O   0  0  0  0  0  0  0  0  0  0  0  0
   -2.0958   -8.7417    0.0000 N   0  0  0  0  0  0  0  0  0  0  0  0
    0.0500   -6.6875    0.0000 C   0  0  0  0  0  0  0  0  0  0  0  0
   -3.5250   -6.2667    0.0000 N   0  0  0  0  0  0  0  0  0  0  0  0
    6.5042   -8.7750    0.0000 C   0  0  0  0  0  0  0  0  0  0  0  0
    2.9125   -9.1667    0.0000 C   0  0  0  0  0  0  0  0  0  0  0  0
    3.6292   -7.9292    0.0000 C   0  0  0  0  0  0  0  0  0  0  0  0
    0.7667   -7.9292    0.0000 C   0  0  0  0  0  0  0  0  0  0  0  0
    2.2042   -7.9292    0.0000 C   0  0  0  0  0  0  0  0  0  0  0  0
    7.2167   -9.1917    0.0000 C   0  0  0  0  0  0  0  0  0  0  0  0
    5.0542  -10.4250    0.0000 O   0  0  0  0  0  0  0  0  0  0  0  0
    8.6542   -9.2000    0.0000 O   0  0  0  0  0  0  0  0  0  0  0  0
    2.9167   -7.5167    0.0000 C   0  0  0  0  0  0  0  0  0  0  0  0
    2.1917   -8.7542    0.0000 C   0  0  0  0  0  0  0  0  0  0  0  0
  2  6  2  0
  3  5  1  0
  4  2  1  0
  5  1  2  0
  6  1  1  0
  7  3  2  0
  8 13  1  0
  9  4  2  0
 10  8  1  0
 11 12  1  0
 12 10  1  0
 13 24  2  0
 14  7  1  0
 15 28  1  0
 16  8  2  0
 17 11  2  0
 18 26  1  0
 19 15  2  0
 20  5  1  0
 21  9  1  0
 22  6  1  0
 23 12  1  0
 24 32  1  0
 25 31  2  0
 26 14  1  0
 27 18  1  0
 28 23  1  0
 29 11  1  0
 30 15  1  0
 31 27  1  0
 32 27  2  0
  3  4  1  0
 14 21  2  0
 13 25  1  0
M  END
>  <ID>  (1468) 


>  <MOLENAME>  (1468) 
AMINOPTERIN

>  <therap>  (1468) 
antineoplastic, antirheumatic, folic acid antagonist

>  <ref>  (1468) 
New Engl J. Med, 238:787 (1948); Clin Cancer Res 11:8089 (2005)

>  <cas#>  (1468) 
54-62-6, 58602-66-7 [aminopterin sodium]

>  <source>  (1468) 
synthetic; NSC-739

>  <status>  (1468) 
INN, BAN

>  <tradename>  (1468) 
nan

>  <SMILES>  (1468) 
Nc1nc2ncc(CNc3ccc(C(=O)NC(CCC(=O)O)C(=O)O)cc3)nc2c(N)n1

>  <standardized_failed>  (1468) 
False

$$$$

     RDKit          2D

 12 11  0  0  0  0  0  0  0  0999 V2000
   -1.1000   -0.4917    0.0000 C   0  0  0  0  0  0  0  0  0  0  0  0
    3.8917   -0.8917    0.0000 C   0  0  0  0  0  0  0  0  0  0  0  0
   -1.1083    0.3333    0.0000 O   0  0  0  0  0  0  0  0  0  0  0  0
    3.8917   -1.7167    0.0000 O   0  0  0  0  0  0  0  0  0  0  0  0
   -0.3833   -0.9042    0.0000 N   0  0  0  0  0  0  0  0  0  0  0  0
    4.6042   -0.4792    0.0000 O   0  0  0  0  0  0  0  0  0  0  0  0
    3.1792   -0.4792    0.0000 C   0  0  0  0  0  0  0  0  0  0  0  0
   -1.8125   -0.9042    0.0000 C   0  0  0  0  0  0  0  0  0  0  0  0
    0.3292   -0.4917    0.0000 C   0  0  0  0  0  0  0  0  0  0  0  0
    2.4667   -0.8917    0.0000 C   0  0  0  0  0  0  0  0  0  0  0  0
    1.0417   -0.9000    0.0000 C   0  0  0  0  0  0  0  0  0  0  0  0
    1.7542   -0.4875    0.0000 C   0  0  0  0  0  0  0  0  0  0  0  0
  2  7  1  0
  3  1  2  0
  4  2  2  0
  5  1  1  0
  6  2  1  0
  7 10  1  0
  8  1  1  0
  9  5  1  0
 10 12  1  0
 11  9  1  0
 12 11  1  0
M  END
>  <ID>  (1469) 


>  <MOLENAME>  (1469) 
ACEXAMIC ACID

>  <therap>  (1469) 
wound healing agent

>  <ref>  (1469) 
Digestion 51 18 (1992)

>  <cas#>  (1469) 
57-08-9

>  <source>  (1469) 
synthetic

>  <status>  (1469) 
INN, BAN

>  <tradename>  (1469) 
COPINAL

>  <SMILES>  (1469) 
CC(=O)NCCCCCC(=O)O

>  <standardized_failed>  (1469) 
False

$$$$

     RDKit          2D

 12 11  0  0  0  0  0  0  0  0999 V2000
    6.0917   -3.2000    0.0000 C   0  0  0  0  0  0  0  0  0  0  0  0
    6.8042   -2.7875    0.0000 C   0  0  0  0  0  0  0  0  0  0  0  0
    6.0917   -4.0250    0.0000 N   0  0  0  0  0  0  0  0  0  0  0  0
    6.8042   -4.4375    0.0000 C   0  0  0  0  0  0  0  0  0  0  0  0
    6.8042   -1.9625    0.0000 O   0  0  0  0  0  0  0  0  0  0  0  0
    5.3792   -2.7875    0.0000 C   0  0  0  0  0  0  0  0  0  0  0  0
    7.5167   -4.0250    0.0000 O   0  0  0  0  0  0  0  0  0  0  0  0
    7.5167   -3.2000    0.0000 O   0  0  0  0  0  0  0  0  0  0  0  0
    4.6667   -3.2000    0.0000 C   0  0  0  0  0  0  0  0  0  0  0  0
    6.8042   -5.2625    0.0000 C   0  0  0  0  0  0  0  0  0  0  0  0
    3.9542   -2.7875    0.0000 C   0  0  0  0  0  0  0  0  0  0  0  0
    4.6667   -4.0250    0.0000 C   0  0  0  0  0  0  0  0  0  0  0  0
  2  1  1  0
  1  3  1  0
  4  3  1  0
  5  2  2  0
  1  6  1  1
  7  4  2  0
  8  2  1  0
  9  6  1  0
 10  4  1  0
 11  9  1  0
 12  9  1  0
M  END
>  <ID>  (1470) 


>  <MOLENAME>  (1470) 
ACETYL-L-LEUCINE

>  <therap>  (1470) 
antivertigo

>  <ref>  (1470) 
US pat 2941924 (1960)

>  <cas#>  (1470) 
99-15-0

>  <source>  (1470) 
synthetic; RP-7452

>  <status>  (1470) 
INN

>  <tradename>  (1470) 
TANGANIL

>  <SMILES>  (1470) 
CC(=O)N[C@@H](CC(C)C)C(=O)O

>  <standardized_failed>  (1470) 
False

$$$$

     RDKit          2D

 31 32  0  0  0  0  0  0  0  0999 V2000
    9.0917    3.0000    0.0000 N   0  0  0  0  0  0  0  0  0  0  0  0
    7.1542   -2.6625    0.0000 P   0  0  0  0  0  0  0  0  0  0  0  0
    8.0792    1.9958    0.0000 C   0  0  0  0  0  0  0  0  0  0  0  0
    6.0542    0.0083    0.0000 C   0  0  0  0  0  0  0  0  0  0  0  0
    8.3000    2.7958    0.0000 C   0  0  0  0  0  0  0  0  0  0  0  0
    7.0667    1.0000    0.0000 N   0  0  0  0  0  0  0  0  0  0  0  0
    5.2542   -0.2042    0.0000 S   0  0  0  0  0  0  0  0  0  0  0  0
    6.2667    0.7958    0.0000 C   0  0  0  0  0  0  0  0  0  0  0  0
    5.0417   -0.9917    0.0000 C   0  0  0  0  0  0  0  0  0  0  0  0
    7.2792    1.7875    0.0000 C   0  0  0  0  0  0  0  0  0  0  0  0
    9.4417    1.6208    0.0000 N   0  0  0  0  0  0  0  0  0  0  0  0
    9.6750    2.4125    0.0000 C   0  0  0  0  0  0  0  0  0  0  0  0
    7.6417    0.4125    0.0000 C   0  0  0  0  0  0  0  0  0  0  0  0
    8.6542    1.4125    0.0000 C   0  0  0  0  0  0  0  0  0  0  0  0
    6.9292   -3.4542    0.0000 O   0  0  0  0  0  0  0  0  0  0  0  0
    5.4500   -1.6542    0.0000 O   0  0  0  0  0  0  0  0  0  0  0  0
    4.2250   -1.1042    0.0000 C   0  0  0  0  0  0  0  0  0  0  0  0
    7.4292   -0.3750    0.0000 O   0  0  0  0  0  0  0  0  0  0  0  0
    6.6292   -0.5792    0.0000 C   0  0  0  0  0  0  0  0  0  0  0  0
    7.0292   -1.7667    0.0000 O   0  0  0  0  0  0  0  0  0  0  0  0
    7.7250    3.3833    0.0000 N   0  0  0  0  0  0  0  0  0  0  0  0
    7.9542   -2.8917    0.0000 O   0  0  0  0  0  0  0  0  0  0  0  0
    6.3625   -2.4292    0.0000 O   0  0  0  0  0  0  0  0  0  0  0  0
    6.4542   -1.1750    0.0000 C   0  0  0  0  0  0  0  0  0  0  0  0
    5.6917    1.3833    0.0000 C   0  0  0  0  0  0  0  0  0  0  0  0
   10.4792    2.6208    0.0000 C   0  0  0  0  0  0  0  0  0  0  0  0
    3.7167   -0.4500    0.0000 C   0  0  0  0  0  0  0  0  0  0  0  0
    3.9167   -1.8667    0.0000 C   0  0  0  0  0  0  0  0  0  0  0  0
    2.9000   -0.5625    0.0000 C   0  0  0  0  0  0  0  0  0  0  0  0
    3.1000   -1.9792    0.0000 C   0  0  0  0  0  0  0  0  0  0  0  0
    2.5917   -1.3292    0.0000 C   0  0  0  0  0  0  0  0  0  0  0  0
  2 20  1  0
  3  5  1  0
  4  8  2  0
  5  1  2  0
  6 10  1  0
  7  4  1  0
  8  6  1  0
  9  7  1  0
 10  3  1  0
 11 12  2  0
 12  1  1  0
 13  6  1  0
 14 11  1  0
 15  2  2  0
 16  9  2  0
 17  9  1  0
 18 13  2  0
 19  4  1  0
 20 24  1  0
 21  5  1  0
 22  2  1  0
 23  2  1  0
 24 19  1  0
 25  8  1  0
 26 12  1  0
 27 17  2  0
 28 17  1  0
 29 27  1  0
 30 28  2  0
 31 30  1  0
 14  3  2  0
 31 29  2  0
M  END
>  <ID>  (1471) 


>  <MOLENAME>  (1471) 
BENFOTIAMINE

>  <therap>  (1471) 
vitamin B1

>  <ref>  (1471) 
Chem Pharm 18:1937 (1970); Am Nutr Metab 35:292 (1991)

>  <cas#>  (1471) 
22457-89-2

>  <source>  (1471) 
Vitamin B1; 8088-CB

>  <status>  (1471) 
INN, JAN

>  <tradename>  (1471) 
BIOTAMIN

>  <SMILES>  (1471) 
C/C(=C(/CCOP(=O)(O)O)SC(=O)c1ccccc1)N(C=O)Cc1cnc(C)nc1N

>  <standardized_failed>  (1471) 
False

$$$$

     RDKit          2D

 16 18  0  0  0  0  0  0  0  0999 V2000
    4.2625   -1.4292    0.0000 C   0  0  0  0  0  0  0  0  0  0  0  0
    4.2542   -2.2667    0.0000 C   0  0  0  0  0  0  0  0  0  0  0  0
    2.8292   -1.4375    0.0000 C   0  0  0  0  0  0  0  0  0  0  0  0
    3.5417   -1.0167    0.0000 C   0  0  0  0  0  0  0  0  0  0  0  0
    2.8292   -2.2625    0.0000 C   0  0  0  0  0  0  0  0  0  0  0  0
    4.9792   -1.0125    0.0000 C   0  0  0  0  0  0  0  0  0  0  0  0
    4.9750   -2.6792    0.0000 O   0  0  0  0  0  0  0  0  0  0  0  0
    3.5417   -2.6750    0.0000 C   0  0  0  0  0  0  0  0  0  0  0  0
    5.7000   -2.2667    0.0000 C   0  0  0  0  0  0  0  0  0  0  0  0
    5.7000   -1.4292    0.0000 C   0  0  0  0  0  0  0  0  0  0  0  0
    2.0500   -2.5167    0.0000 O   0  0  0  0  0  0  0  0  0  0  0  0
    2.0500   -1.1792    0.0000 C   0  0  0  0  0  0  0  0  0  0  0  0
    1.5667   -1.8500    0.0000 C   0  0  0  0  0  0  0  0  0  0  0  0
    6.4125   -2.6792    0.0000 O   0  0  0  0  0  0  0  0  0  0  0  0
    3.5417   -0.1917    0.0000 O   0  0  0  0  0  0  0  0  0  0  0  0
    4.2542    0.2208    0.0000 C   0  0  0  0  0  0  0  0  0  0  0  0
  2  1  2  0
  3  4  2  0
  4  1  1  0
  5  3  1  0
  6  1  1  0
  7  2  1  0
  8  2  1  0
  9 10  1  0
 10  6  2  0
 11  5  1  0
 12  3  1  0
 13 12  2  0
 14  9  2  0
 15  4  1  0
 16 15  1  0
  8  5  2  0
  9  7  1  0
 11 13  1  0
M  END
>  <ID>  (1472) 


>  <MOLENAME>  (1472) 
BERGAPTEN

>  <therap>  (1472) 
antipsoriatic, antiinflammatory

>  <ref>  (1472) 
Ber 67: 59 (1934); Chem Pharm Bull 38: 2498 (1990)

>  <cas#>  (1472) 
484-20-8

>  <source>  (1472) 
widespread in Umbelliferae

>  <status>  (1472) 
INN

>  <tradename>  (1472) 
PSORADERM-5

>  <SMILES>  (1472) 
COc1c2ccoc2cc2c1ccc(=O)o2

>  <standardized_failed>  (1472) 
False

$$$$

     RDKit          2D

 20 21  0  0  0  0  0  0  0  0999 V2000
    2.5375    0.5250    0.0000 C   0  0  0  0  0  0  0  0  0  0  0  0
    1.7042    0.5333    0.0000 C   0  0  0  0  0  0  0  0  0  0  0  0
    2.9625    1.2458    0.0000 O   0  0  0  0  0  0  0  0  0  0  0  0
    6.6792    0.4958    0.0000 C   0  0  0  0  0  0  0  0  0  0  0  0
    6.2667    1.2208    0.0000 N   0  0  0  0  0  0  0  0  0  0  0  0
    1.2917   -0.1917    0.0000 C   0  0  0  0  0  0  0  0  0  0  0  0
    2.9542   -0.1917    0.0000 O   0  0  0  0  0  0  0  0  0  0  0  0
    7.5125    0.4875    0.0000 O   0  0  0  0  0  0  0  0  0  0  0  0
    3.7917    1.2458    0.0000 C   0  0  0  0  0  0  0  0  0  0  0  0
    5.4417    1.2208    0.0000 C   0  0  0  0  0  0  0  0  0  0  0  0
    1.7042   -0.9042    0.0000 O   0  0  0  0  0  0  0  0  0  0  0  0
    1.3042    1.2583    0.0000 C   0  0  0  0  0  0  0  0  0  0  0  0
    4.2042    1.9583    0.0000 C   0  0  0  0  0  0  0  0  0  0  0  0
    4.1917    0.5125    0.0000 C   0  0  0  0  0  0  0  0  0  0  0  0
    5.0375    1.9458    0.0000 C   0  0  0  0  0  0  0  0  0  0  0  0
    5.0250    0.5083    0.0000 C   0  0  0  0  0  0  0  0  0  0  0  0
    6.2667   -0.2167    0.0000 C   0  0  0  0  0  0  0  0  0  0  0  0
    0.4750   -0.1875    0.0000 C   0  0  0  0  0  0  0  0  0  0  0  0
    0.4792    1.2458    0.0000 C   0  0  0  0  0  0  0  0  0  0  0  0
    0.0542    0.5333    0.0000 C   0  0  0  0  0  0  0  0  0  0  0  0
  2  1  1  0
  3  1  1  0
  4  5  1  0
  5 10  1  0
  6  2  2  0
  7  1  2  0
  8  4  2  0
  9  3  1  0
 10 16  2  0
 11  6  1  0
 12  2  1  0
 13  9  1  0
 14  9  2  0
 15 13  2  0
 16 14  1  0
 17  4  1  0
 18  6  1  0
 19 12  2  0
 20 19  1  0
 10 15  1  0
 20 18  2  0
M  END
>  <ID>  (1473) 


>  <MOLENAME>  (1473) 
ACETAMINOSALOL

>  <therap>  (1473) 
analgesic, antipyretic

>  <ref>  (1473) 
Am J Med Sci 115:715 (1898)

>  <cas#>  (1473) 
118-57-0

>  <source>  (1473) 
synthetic

>  <status>  (1473) 
INN

>  <tradename>  (1473) 
SALOPHEN

>  <SMILES>  (1473) 
CC(=O)Nc1ccc(OC(=O)c2c(O)cccc2)cc1

>  <standardized_failed>  (1473) 
False

$$$$

     RDKit          2D

  6  6  0  0  0  0  0  0  0  0999 V2000
    2.5792    0.5458    0.0000 C   0  0  0  0  0  0  0  0  0  0  0  0
    2.8375   -0.2417    0.0000 N   0  0  0  0  0  0  0  0  0  0  0  0
    3.2500    1.0250    0.0000 S   0  0  0  0  0  0  0  0  0  0  0  0
    3.6625   -0.2417    0.0000 C   0  0  0  0  0  0  0  0  0  0  0  0
    3.9167    0.5458    0.0000 C   0  0  0  0  0  0  0  0  0  0  0  0
    1.8000    0.7958    0.0000 N   0  0  0  0  0  0  0  0  0  0  0  0
  2  1  2  0
  3  1  1  0
  4  2  1  0
  5  3  1  0
  6  1  1  0
  4  5  2  0
M  END
>  <ID>  (1474) 


>  <MOLENAME>  (1474) 
AMINOTHIAZOLE

>  <therap>  (1474) 
antithyroid agent

>  <ref>  (1474) 
Lancet 247:731 (1946)

>  <cas#>  (1474) 
96-50-4

>  <source>  (1474) 
synthetic; RP-2921

>  <status>  (1474) 
INN

>  <tradename>  (1474) 
ABADOLE

>  <SMILES>  (1474) 
Nc1nccs1

>  <standardized_failed>  (1474) 
False

$$$$

     RDKit          2D

 14 15  0  0  0  0  0  0  0  0999 V2000
    1.5375    0.4083    0.0000 C   0  0  0  0  0  0  0  0  0  0  0  0
    1.5292   -0.4167    0.0000 C   0  0  0  0  0  0  0  0  0  0  0  0
    0.8250    0.8250    0.0000 C   0  0  0  0  0  0  0  0  0  0  0  0
    2.2500    0.8208    0.0000 N   0  0  0  0  0  0  0  0  0  0  0  0
    0.1167    0.4083    0.0000 C   0  0  0  0  0  0  0  0  0  0  0  0
    0.8250   -0.8250    0.0000 C   0  0  0  0  0  0  0  0  0  0  0  0
    0.1167   -0.4167    0.0000 C   0  0  0  0  0  0  0  0  0  0  0  0
    2.2417   -0.8292    0.0000 C   0  0  0  0  0  0  0  0  0  0  0  0
    2.9625    0.4083    0.0000 C   0  0  0  0  0  0  0  0  0  0  0  0
    0.8250    1.6500    0.0000 O   0  0  0  0  0  0  0  0  0  0  0  0
   -0.6000    0.8208    0.0000 Cl  0  0  0  0  0  0  0  0  0  0  0  0
    0.8292   -1.6500    0.0000 Cl  0  0  0  0  0  0  0  0  0  0  0  0
    2.9625   -0.4167    0.0000 C   0  0  0  0  0  0  0  0  0  0  0  0
    3.6792    0.8125    0.0000 C   0  0  0  0  0  0  0  0  0  0  0  0
  2  1  1  0
  3  1  2  0
  4  1  1  0
  5  3  1  0
  6  2  2  0
  7  5  2  0
  8  2  1  0
  9  4  2  0
 10  3  1  0
 11  5  1  0
 12  6  1  0
 13  9  1  0
 14  9  1  0
 13  8  2  0
  7  6  1  0
M  END
>  <ID>  (1475) 


>  <MOLENAME>  (1475) 
CHLORQUINALDOL

>  <therap>  (1475) 
antiinfectant, antifungal

>  <ref>  (1475) 
Int. J. Dermatol. (1977), 16(4), 267-73; J. Med. Pharm. Chem. (1962), 5, 389-97

>  <cas#>  (1475) 
72-80-0

>  <source>  (1475) 
synthetic

>  <status>  (1475) 
INN, BAN

>  <tradename>  (1475) 
SITOSTERAN

>  <SMILES>  (1475) 
Cc1nc2c(O)c(Cl)cc(Cl)c2cc1

>  <standardized_failed>  (1475) 
False

$$$$

     RDKit          2D

 21 23  0  0  0  0  0  0  0  0999 V2000
    4.9917   -4.9917    0.0000 N   0  0  0  0  0  0  0  0  0  0  0  0
    4.9917   -5.8167    0.0000 C   0  0  0  0  0  0  0  0  0  0  0  0
    5.7042   -6.2292    0.0000 S   0  0  0  0  0  0  0  0  0  0  0  0
    6.4167   -4.9917    0.0000 N   0  0  0  0  0  0  0  0  0  0  0  0
    5.7042   -4.5792    0.0000 C   0  0  0  0  0  0  0  0  0  0  0  0
    6.4167   -5.8167    0.0000 C   0  0  0  0  0  0  0  0  0  0  0  0
    4.2792   -4.5833    0.0000 C   0  0  0  0  0  0  0  0  0  0  0  0
    4.2792   -6.2333    0.0000 O   0  0  0  0  0  0  0  0  0  0  0  0
    7.1333   -4.5833    0.0000 C   0  0  0  0  0  0  0  0  0  0  0  0
    4.2750   -3.7583    0.0000 C   0  0  0  0  0  0  0  0  0  0  0  0
    7.8458   -5.0000    0.0000 C   0  0  0  0  0  0  0  0  0  0  0  0
    3.5625   -3.3500    0.0000 C   0  0  0  0  0  0  0  0  0  0  0  0
    4.9875   -3.3458    0.0000 C   0  0  0  0  0  0  0  0  0  0  0  0
    8.5583   -4.5875    0.0000 C   0  0  0  0  0  0  0  0  0  0  0  0
    7.8417   -5.8250    0.0000 C   0  0  0  0  0  0  0  0  0  0  0  0
    8.5542   -6.2375    0.0000 C   0  0  0  0  0  0  0  0  0  0  0  0
    9.2708   -5.0000    0.0000 C   0  0  0  0  0  0  0  0  0  0  0  0
    4.9875   -2.5208    0.0000 C   0  0  0  0  0  0  0  0  0  0  0  0
    3.5542   -2.5292    0.0000 C   0  0  0  0  0  0  0  0  0  0  0  0
    9.2708   -5.8292    0.0000 C   0  0  0  0  0  0  0  0  0  0  0  0
    4.2708   -2.1083    0.0000 C   0  0  0  0  0  0  0  0  0  0  0  0
  2  1  1  0
  3  2  1  0
  4  5  1  0
  5  1  1  0
  6  4  1  0
  7  1  1  0
  8  2  2  0
  9  4  1  0
 10  7  1  0
 11  9  1  0
 12 10  2  0
 13 10  1  0
 14 11  2  0
 15 11  1  0
 16 15  2  0
 17 14  1  0
 18 13  2  0
 19 12  1  0
 20 17  2  0
 21 19  2  0
  6  3  1  0
 21 18  1  0
 20 16  1  0
M  END
>  <ID>  (1476) 


>  <MOLENAME>  (1476) 
SULBENTINE

>  <therap>  (1476) 
antifungal

>  <ref>  (1476) 
Arch Pharm 293:957 (1960)

>  <cas#>  (1476) 
350-12-9

>  <source>  (1476) 
synthetic; D-47

>  <status>  (1476) 
INN

>  <tradename>  (1476) 
FUNGIPLEX

>  <SMILES>  (1476) 
O=C1SCN(Cc2ccccc2)CN1Cc1ccccc1

>  <standardized_failed>  (1476) 
False

$$$$

     RDKit          2D

 21 23  0  0  0  0  0  0  0  0999 V2000
    6.4542   -3.3042    0.0000 C   0  0  0  0  0  0  0  0  0  0  0  0
    6.4542   -4.1292    0.0000 C   0  0  0  0  0  0  0  0  0  0  0  0
    5.0292   -3.3000    0.0000 C   0  0  0  0  0  0  0  0  0  0  0  0
    5.7417   -2.8875    0.0000 O   0  0  0  0  0  0  0  0  0  0  0  0
    5.7417   -4.5375    0.0000 C   0  0  0  0  0  0  0  0  0  0  0  0
    5.0292   -4.1250    0.0000 C   0  0  0  0  0  0  0  0  0  0  0  0
    4.3167   -2.8792    0.0000 C   0  0  0  0  0  0  0  0  0  0  0  0
    4.3167   -4.5292    0.0000 C   0  0  0  0  0  0  0  0  0  0  0  0
    3.6125   -3.3000    0.0000 C   0  0  0  0  0  0  0  0  0  0  0  0
    7.1792   -2.9000    0.0000 C   0  0  0  0  0  0  0  0  0  0  0  0
    5.7292   -5.3625    0.0000 O   0  0  0  0  0  0  0  0  0  0  0  0
    2.8917   -2.8875    0.0000 O   0  0  0  0  0  0  0  0  0  0  0  0
    3.6125   -4.1250    0.0000 C   0  0  0  0  0  0  0  0  0  0  0  0
    2.8875   -2.0625    0.0000 C   0  0  0  0  0  0  0  0  0  0  0  0
    7.1792   -2.0750    0.0000 C   0  0  0  0  0  0  0  0  0  0  0  0
    7.8875   -3.3167    0.0000 C   0  0  0  0  0  0  0  0  0  0  0  0
    2.1667   -1.6500    0.0000 C   0  0  0  0  0  0  0  0  0  0  0  0
    3.6000   -1.6417    0.0000 C   0  0  0  0  0  0  0  0  0  0  0  0
    7.9000   -1.6667    0.0000 C   0  0  0  0  0  0  0  0  0  0  0  0
    8.6042   -2.9125    0.0000 C   0  0  0  0  0  0  0  0  0  0  0  0
    8.6125   -2.0875    0.0000 C   0  0  0  0  0  0  0  0  0  0  0  0
  2  1  2  0
  3  4  1  0
  4  1  1  0
  5  2  1  0
  6  3  2  0
  7  3  1  0
  8  6  1  0
  9  7  2  0
 10  1  1  0
 11  5  2  0
 12  9  1  0
 13  9  1  0
 14 12  1  0
 15 10  2  0
 16 10  1  0
 17 14  1  0
 18 14  1  0
 19 15  1  0
 20 16  2  0
 21 20  1  0
  5  6  1  0
 19 21  2  0
 13  8  2  0
M  END
>  <ID>  (1477) 


>  <MOLENAME>  (1477) 
IPRIFLAVONE

>  <therap>  (1477) 
anabolic

>  <ref>  (1477) 
Life Sci 38:951 (1986); J Bone Miner Res 1:206 (1986); JAMA 285:1482 (2001)

>  <cas#>  (1477) 
35212-22-7

>  <source>  (1477) 
synthetic

>  <status>  (1477) 
INN, JAN

>  <tradename>  (1477) 
nan

>  <SMILES>  (1477) 
CC(C)Oc1cc2c(cc1)c(=O)cc(-c1ccccc1)o2

>  <standardized_failed>  (1477) 
False

$$$$

     RDKit          2D

 12 12  0  0  0  0  0  0  0  0999 V2000
    2.6750    0.5000    0.0000 C   0  0  0  0  0  0  0  0  0  0  0  0
    3.3875    0.9167    0.0000 C   0  0  0  0  0  0  0  0  0  0  0  0
    2.6750   -0.3292    0.0000 C   0  0  0  0  0  0  0  0  0  0  0  0
    3.3833    1.7417    0.0000 O   0  0  0  0  0  0  0  0  0  0  0  0
    4.1042    0.5083    0.0000 N   0  0  0  0  0  0  0  0  0  0  0  0
    1.9583    0.9125    0.0000 C   0  0  0  0  0  0  0  0  0  0  0  0
    3.3917   -0.7417    0.0000 O   0  0  0  0  0  0  0  0  0  0  0  0
    1.9583   -0.7417    0.0000 C   0  0  0  0  0  0  0  0  0  0  0  0
    3.3917   -1.5667    0.0000 C   0  0  0  0  0  0  0  0  0  0  0  0
    1.2458    0.5000    0.0000 C   0  0  0  0  0  0  0  0  0  0  0  0
    4.1083   -1.9750    0.0000 C   0  0  0  0  0  0  0  0  0  0  0  0
    1.2458   -0.3292    0.0000 C   0  0  0  0  0  0  0  0  0  0  0  0
  2  1  1  0
  3  1  2  0
  4  2  2  0
  5  2  1  0
  6  1  1  0
  7  3  1  0
  8  3  1  0
  9  7  1  0
 10  6  2  0
 11  9  1  0
 12 10  1  0
  8 12  2  0
M  END
>  <ID>  (1478) 


>  <MOLENAME>  (1478) 
ETHENZAMIDE

>  <therap>  (1478) 
analgesic

>  <ref>  (1478) 
J Pharmacol Exp Ther 136:226 (1962); Toxicol Appl Pharmacol 19:20 (1971)

>  <cas#>  (1478) 
938-73-8

>  <source>  (1478) 
synthetic

>  <status>  (1478) 
INN, BAN, JAN

>  <tradename>  (1478) 
LUCAMIDE

>  <SMILES>  (1478) 
CCOc1c(C(N)=O)cccc1

>  <standardized_failed>  (1478) 
False

$$$$

     RDKit          2D

 20 20  0  0  0  0  0  0  0  0999 V2000
    3.0417   -2.3250    0.0000 C   0  0  0  0  0  0  0  0  0  0  0  0
    3.0417   -1.4917    0.0000 C   0  0  0  0  0  0  0  0  0  0  0  0
    3.7542   -1.0792    0.0000 C   0  0  0  0  0  0  0  0  0  0  0  0
    3.7542   -2.7292    0.0000 C   0  0  0  0  0  0  0  0  0  0  0  0
    3.7542   -0.2542    0.0000 O   0  0  0  0  0  0  0  0  0  0  0  0
    3.7542   -3.5542    0.0000 O   0  0  0  0  0  0  0  0  0  0  0  0
    4.4667   -1.4917    0.0000 O   0  0  0  0  0  0  0  0  0  0  0  0
    4.4667   -2.3167    0.0000 O   0  0  0  0  0  0  0  0  0  0  0  0
    2.3292   -2.7375    0.0000 C   0  0  0  0  0  0  0  0  0  0  0  0
    2.3292   -1.0792    0.0000 C   0  0  0  0  0  0  0  0  0  0  0  0
    5.1792   -1.0792    0.0000 C   0  0  0  0  0  0  0  0  0  0  0  0
    5.1792   -2.7292    0.0000 C   0  0  0  0  0  0  0  0  0  0  0  0
    5.8917   -1.4875    0.0000 C   0  0  0  0  0  0  0  0  0  0  0  0
    5.8917   -2.3167    0.0000 C   0  0  0  0  0  0  0  0  0  0  0  0
    6.6042   -1.0750    0.0000 C   0  0  0  0  0  0  0  0  0  0  0  0
    6.6042   -2.7250    0.0000 C   0  0  0  0  0  0  0  0  0  0  0  0
    1.6167   -1.5000    0.0000 C   0  0  0  0  0  0  0  0  0  0  0  0
    1.6167   -2.3250    0.0000 C   0  0  0  0  0  0  0  0  0  0  0  0
    7.3167   -1.4792    0.0000 C   0  0  0  0  0  0  0  0  0  0  0  0
    7.3167   -2.3125    0.0000 C   0  0  0  0  0  0  0  0  0  0  0  0
  2  1  2  0
  3  2  1  0
  4  1  1  0
  5  3  2  0
  6  4  2  0
  7  3  1  0
  8  4  1  0
  9  1  1  0
 10  2  1  0
 11  7  1  0
 12  8  1  0
 13 11  1  0
 14 12  1  0
 15 13  1  0
 16 14  1  0
 17 18  1  0
 18  9  2  0
 19 15  1  0
 20 16  1  0
 10 17  2  0
M  END
>  <ID>  (1479) 


>  <MOLENAME>  (1479) 
DIBUTYL PHTHALATE

>  <therap>  (1479) 
plasticiser, suspect endocrine disruptor

>  <ref>  (1479) 
nan

>  <cas#>  (1479) 
84-74-2

>  <source>  (1479) 
synthetic

>  <status>  (1479) 
NF

>  <tradename>  (1479) 
nan

>  <SMILES>  (1479) 
CCCCOC(=O)c1c(C(=O)OCCCC)cccc1

>  <standardized_failed>  (1479) 
False

$$$$

     RDKit          2D

  7  6  0  0  0  0  0  0  0  0999 V2000
    0.8417   -0.6792    0.0000 C   0  0  0  0  0  0  0  0  0  0  0  0
    0.8417   -1.4292    0.0000 O   0  0  0  0  0  0  0  0  0  0  0  0
    1.4917   -0.3042    0.0000 O   0  0  0  0  0  0  0  0  0  0  0  0
   -1.7583   -0.6792    0.0000 N   0  0  0  0  0  0  0  0  0  0  0  0
    0.1917   -0.3042    0.0000 C   0  0  0  0  0  0  0  0  0  0  0  0
   -1.1083   -0.3042    0.0000 C   0  0  0  0  0  0  0  0  0  0  0  0
   -0.4583   -0.6792    0.0000 C   0  0  0  0  0  0  0  0  0  0  0  0
  2  1  2  0
  3  1  1  0
  4  6  1  0
  5  1  1  0
  6  7  1  0
  7  5  1  0
M  END
>  <ID>  (1480) 


>  <MOLENAME>  (1480) 
gamma-AMINOBUTYRIC ACID

>  <therap>  (1480) 
antihypertensive

>  <ref>  (1480) 
Biochem. Pharmacol. (1966), 15(1), 49-54; Br. J. Pharmacol. Chemother. (1964), 23, 313-29; J. Physiol. (1962), 162, 105-20,

>  <cas#>  (1480) 
56-12-2

>  <source>  (1480) 
widely distributed in higher plants

>  <status>  (1480) 
JAN

>  <tradename>  (1480) 
nan

>  <SMILES>  (1480) 
NCCCC(=O)O

>  <standardized_failed>  (1480) 
False

$$$$

     RDKit          2D

 17 18  0  0  0  0  0  0  0  0999 V2000
    6.3292   -5.7500    0.0000 C   0  0  0  0  0  0  0  0  0  0  0  0
    5.5625   -5.4542    0.0000 C   0  0  0  0  0  0  0  0  0  0  0  0
    6.3917   -4.4250    0.0000 N   0  0  0  0  0  0  0  0  0  0  0  0
    5.6000   -4.6417    0.0000 C   0  0  0  0  0  0  0  0  0  0  0  0
    6.8417   -5.1042    0.0000 N   0  0  0  0  0  0  0  0  0  0  0  0
    4.8625   -5.9125    0.0000 N   0  0  0  0  0  0  0  0  0  0  0  0
    6.5542   -6.5500    0.0000 O   0  0  0  0  0  0  0  0  0  0  0  0
    7.6750   -5.1042    0.0000 C   0  0  0  0  0  0  0  0  0  0  0  0
    6.6750   -3.6417    0.0000 C   0  0  0  0  0  0  0  0  0  0  0  0
    4.9417   -4.1292    0.0000 C   0  0  0  0  0  0  0  0  0  0  0  0
    4.1167   -5.5292    0.0000 C   0  0  0  0  0  0  0  0  0  0  0  0
    4.9042   -6.7417    0.0000 C   0  0  0  0  0  0  0  0  0  0  0  0
    8.0875   -4.3917    0.0000 C   0  0  0  0  0  0  0  0  0  0  0  0
    8.0875   -5.8167    0.0000 C   0  0  0  0  0  0  0  0  0  0  0  0
    8.9167   -5.8167    0.0000 C   0  0  0  0  0  0  0  0  0  0  0  0
    8.9167   -4.3917    0.0000 C   0  0  0  0  0  0  0  0  0  0  0  0
    9.3292   -5.1042    0.0000 C   0  0  0  0  0  0  0  0  0  0  0  0
  2  1  1  0
  3  5  1  0
  4  2  2  0
  5  1  1  0
  6  2  1  0
  7  1  2  0
  8  5  1  0
  9  3  1  0
 10  4  1  0
 11  6  1  0
 12  6  1  0
 13  8  2  0
 14  8  1  0
 15 14  2  0
 16 13  1  0
 17 15  1  0
  4  3  1  0
 16 17  2  0
M  END
>  <ID>  (1481) 


>  <MOLENAME>  (1481) 
AMINOPYRINE

>  <therap>  (1481) 
antipyretic, analgesic

>  <ref>  (1481) 
J Pharm Exp Ther 89:205 (1947); 99:171 (1950) ; Arzneim Forsch 20:1024 (1970)

>  <cas#>  (1481) 
83-07-8, 747-30-8 [aminophenazone cyclamate]

>  <source>  (1481) 
synthetic

>  <status>  (1481) 
NF, INN, JAN

>  <tradename>  (1481) 
PYRAMIDON

>  <SMILES>  (1481) 
Cc1c(N(C)C)c(=O)n(-c2ccccc2)n1C

>  <standardized_failed>  (1481) 
False

$$$$

     RDKit          2D

 38 35  0  0  0  0  0  0  0  0999 V2000
    2.3167   -5.3500    0.0000 N   0  0  0  0  0  0  0  0  0  0  0  0
   10.0667   -5.7917    0.0000 N   0  0  0  0  0  0  0  0  0  0  0  0
   10.7792   -5.3875    0.0000 C   0  0  0  0  0  0  0  0  0  0  0  0
    1.6042   -5.7625    0.0000 C   0  0  0  0  0  0  0  0  0  0  0  0
    3.0292   -5.7625    0.0000 C   0  0  0  0  0  0  0  0  0  0  0  0
    9.3542   -5.3792    0.0000 C   0  0  0  0  0  0  0  0  0  0  0  0
    1.5917   -6.5875    0.0000 N   0  0  0  0  0  0  0  0  0  0  0  0
   10.7792   -4.5625    0.0000 N   0  0  0  0  0  0  0  0  0  0  0  0
    3.0167   -6.5875    0.0000 N   0  0  0  0  0  0  0  0  0  0  0  0
    9.3542   -4.5542    0.0000 N   0  0  0  0  0  0  0  0  0  0  0  0
   11.4917   -5.8000    0.0000 N   0  0  0  0  0  0  0  0  0  0  0  0
    0.8917   -5.3500    0.0000 N   0  0  0  0  0  0  0  0  0  0  0  0
    3.7417   -5.3542    0.0000 N   0  0  0  0  0  0  0  0  0  0  0  0
    8.6417   -5.7875    0.0000 N   0  0  0  0  0  0  0  0  0  0  0  0
   12.2042   -5.3875    0.0000 C   0  0  0  0  0  0  0  0  0  0  0  0
    0.1792   -5.7542    0.0000 C   0  0  0  0  0  0  0  0  0  0  0  0
    2.1167   -7.9292    0.0000 Cl  0  0  0  0  0  0  0  0  0  0  0  0
   10.0417   -7.9000    0.0000 Cl  0  0  0  0  0  0  0  0  0  0  0  0
    7.9292   -5.3750    0.0000 C   0  0  0  0  0  0  0  0  0  0  0  0
    4.3542   -5.7750    0.0000 C   0  0  0  0  0  0  0  0  0  0  0  0
   -0.5333   -5.3417    0.0000 C   0  0  0  0  0  0  0  0  0  0  0  0
   12.9167   -5.8000    0.0000 C   0  0  0  0  0  0  0  0  0  0  0  0
   12.9167   -6.6250    0.0000 C   0  0  0  0  0  0  0  0  0  0  0  0
   -0.5333   -4.5250    0.0000 C   0  0  0  0  0  0  0  0  0  0  0  0
   -1.2458   -5.7500    0.0000 C   0  0  0  0  0  0  0  0  0  0  0  0
   13.6292   -5.3917    0.0000 C   0  0  0  0  0  0  0  0  0  0  0  0
    5.0667   -5.3625    0.0000 C   0  0  0  0  0  0  0  0  0  0  0  0
    7.2167   -5.7875    0.0000 C   0  0  0  0  0  0  0  0  0  0  0  0
   15.0542   -5.4000    0.0000 C   0  0  0  0  0  0  0  0  0  0  0  0
   -2.6708   -5.7500    0.0000 C   0  0  0  0  0  0  0  0  0  0  0  0
   14.3417   -5.8042    0.0000 C   0  0  0  0  0  0  0  0  0  0  0  0
   -1.9583   -5.3375    0.0000 C   0  0  0  0  0  0  0  0  0  0  0  0
    6.5042   -5.3750    0.0000 C   0  0  0  0  0  0  0  0  0  0  0  0
    5.7917   -5.7792    0.0000 C   0  0  0  0  0  0  0  0  0  0  0  0
   13.6292   -7.0292    0.0000 C   0  0  0  0  0  0  0  0  0  0  0  0
   -1.2458   -4.1125    0.0000 C   0  0  0  0  0  0  0  0  0  0  0  0
   -3.3833   -5.3375    0.0000 C   0  0  0  0  0  0  0  0  0  0  0  0
   15.7667   -5.8125    0.0000 C   0  0  0  0  0  0  0  0  0  0  0  0
  2  6  1  0
  3  2  1  0
  4  1  1  0
  5  1  1  0
  6 14  1  0
  7  4  2  0
  8  3  2  0
  9  5  2  0
 10  6  2  0
 11  3  1  0
 12  4  1  0
 13  5  1  0
 14 19  1  0
 15 11  1  0
 16 12  1  0
 19 28  1  0
 20 13  1  0
 21 16  1  0
 22 15  1  0
 23 22  1  0
 24 21  1  0
 25 21  1  0
 26 22  1  0
 27 20  1  0
 28 33  1  0
 29 31  1  0
 30 32  1  0
 31 26  1  0
 32 25  1  0
 33 34  1  0
 34 27  1  0
 35 23  1  0
 36 24  1  0
 37 30  1  0
 38 29  1  0
M  END
>  <ID>  (1482) 


>  <MOLENAME>  (1482) 
ALEXIDINE HYDROCHLORIDE

>  <therap>  (1482) 
antibacterial

>  <ref>  (1482) 
J Soc Cosmet Chem 16:499 (1965)

>  <cas#>  (1482) 
22573-93-9, 22782-69-0 [alexidine]

>  <source>  (1482) 
synthetic; Wain-21904

>  <status>  (1482) 
INN

>  <tradename>  (1482) 
nan

>  <SMILES>  (1482) 
CCCCC(CC)CNC(=N)NC(=N)NCCCCCCNC(=N)NC(=N)NCC(CC)CCCC

>  <standardized_failed>  (1482) 
False

$$$$

     RDKit          2D

 12 12  0  0  0  0  0  0  0  0999 V2000
    3.0500   -2.2625    0.0000 C   0  0  0  0  0  0  0  0  0  0  0  0
    4.4792   -1.4292    0.0000 C   0  0  0  0  0  0  0  0  0  0  0  0
    3.7625   -2.6750    0.0000 C   0  0  0  0  0  0  0  0  0  0  0  0
    3.0500   -1.4375    0.0000 C   0  0  0  0  0  0  0  0  0  0  0  0
    5.1917   -1.0167    0.0000 C   0  0  0  0  0  0  0  0  0  0  0  0
    3.7625   -1.0167    0.0000 C   0  0  0  0  0  0  0  0  0  0  0  0
    4.4792   -2.2625    0.0000 C   0  0  0  0  0  0  0  0  0  0  0  0
    5.1875   -0.1917    0.0000 O   0  0  0  0  0  0  0  0  0  0  0  0
    2.3292   -2.6750    0.0000 O   0  0  0  0  0  0  0  0  0  0  0  0
    2.3375   -1.0250    0.0000 O   0  0  0  0  0  0  0  0  0  0  0  0
    3.7625   -3.5000    0.0000 O   0  0  0  0  0  0  0  0  0  0  0  0
    5.9042   -1.4250    0.0000 O   0  0  0  0  0  0  0  0  0  0  0  0
  2  6  1  0
  3  1  2  0
  4  1  1  0
  5  2  1  0
  6  4  2  0
  7  3  1  0
  8  5  2  0
  9  1  1  0
 10  4  1  0
 11  3  1  0
 12  5  1  0
  2  7  2  0
M  END
>  <ID>  (1483) 


>  <MOLENAME>  (1483) 
GALLIC ACID

>  <therap>  (1483) 
antineoplastic, astringent, antibacterial 

>  <ref>  (1483) 
J Chem Soc 1961:1854; Agric Biol Chem 30:617 (1966); Phytochemistry 10:894 (1971); 11:1911 (1972); Cancer Res 39:844 (1979); J Med Chem 22:589 (1979)

>  <cas#>  (1483) 
149-91-7

>  <source>  (1483) 
insect galls

>  <status>  (1483) 
INN, NF-VII

>  <tradename>  (1483) 
nan

>  <SMILES>  (1483) 
O=C(O)c1cc(O)c(O)c(O)c1

>  <standardized_failed>  (1483) 
False

$$$$

     RDKit          2D

 11 11  0  0  0  0  0  0  0  0999 V2000
    4.6417   -2.7042    0.0000 C   0  0  0  0  0  0  0  0  0  0  0  0
    4.6417   -1.0542    0.0000 N   0  0  0  0  0  0  0  0  0  0  0  0
    3.9292   -1.4667    0.0000 C   0  0  0  0  0  0  0  0  0  0  0  0
    5.3625   -2.2917    0.0000 C   0  0  0  0  0  0  0  0  0  0  0  0
    3.9292   -2.2917    0.0000 N   0  0  0  0  0  0  0  0  0  0  0  0
    5.3625   -1.4667    0.0000 C   0  0  0  0  0  0  0  0  0  0  0  0
    4.6417   -3.5292    0.0000 C   0  0  0  0  0  0  0  0  0  0  0  0
    3.2167   -1.0542    0.0000 O   0  0  0  0  0  0  0  0  0  0  0  0
    6.0750   -1.0500    0.0000 O   0  0  0  0  0  0  0  0  0  0  0  0
    3.9292   -3.9417    0.0000 O   0  0  0  0  0  0  0  0  0  0  0  0
    5.3625   -3.9417    0.0000 O   0  0  0  0  0  0  0  0  0  0  0  0
  2  3  1  0
  3  5  1  0
  4  1  2  0
  5  1  1  0
  6  4  1  0
  7  1  1  0
  8  3  2  0
  9  6  2  0
 10  7  2  0
 11  7  1  0
  6  2  1  0
M  END
>  <ID>  (1484) 


>  <MOLENAME>  (1484) 
OROTIC ACID

>  <therap>  (1484) 
hepatoprotectant, uricosuric agent

>  <ref>  (1484) 
J Biol Chem 202:91 (1953)

>  <cas#>  (1484) 
65-86-1

>  <source>  (1484) 
widespread in animals

>  <status>  (1484) 
INN

>  <tradename>  (1484) 
nan

>  <SMILES>  (1484) 
O=C(O)c1cc(=O)[nH]c(=O)[nH]1

>  <standardized_failed>  (1484) 
False

$$$$

     RDKit          2D

 26 29  0  0  0  0  0  0  0  0999 V2000
    5.4125   -1.0833    0.0000 N   0  0  0  0  0  0  0  0  0  0  0  0
    6.1375   -2.3167    0.0000 C   0  0  0  0  0  0  0  0  0  0  0  0
    4.7042   -1.4958    0.0000 C   0  0  0  0  0  0  0  0  0  0  0  0
    4.7083   -2.3208    0.0000 C   0  0  0  0  0  0  0  0  0  0  0  0
    3.9917   -1.0833    0.0000 C   0  0  0  0  0  0  0  0  0  0  0  0
    6.1333   -1.4875    0.0000 C   0  0  0  0  0  0  0  0  0  0  0  0
    5.4250   -2.7333    0.0000 C   0  0  0  0  0  0  0  0  0  0  0  0
    3.2792   -1.5000    0.0000 C   0  0  0  0  0  0  0  0  0  0  0  0
    3.2792   -2.3250    0.0000 C   0  0  0  0  0  0  0  0  0  0  0  0
    3.9917   -2.7375    0.0000 C   0  0  0  0  0  0  0  0  0  0  0  0
    2.5667   -1.0792    0.0000 N   0  0  0  0  0  0  0  0  0  0  0  0
    6.8542   -2.7250    0.0000 C   0  0  0  0  0  0  0  0  0  0  0  0
    3.9875   -0.2667    0.0000 C   0  0  0  0  0  0  0  0  0  0  0  0
    5.4125   -0.2625    0.0000 C   0  0  0  0  0  0  0  0  0  0  0  0
    5.4250   -3.5583    0.0000 O   0  0  0  0  0  0  0  0  0  0  0  0
    2.5667   -0.2542    0.0000 C   0  0  0  0  0  0  0  0  0  0  0  0
    1.8542   -1.4958    0.0000 C   0  0  0  0  0  0  0  0  0  0  0  0
    6.8583   -3.5500    0.0000 O   0  0  0  0  0  0  0  0  0  0  0  0
    4.6958    0.1458    0.0000 C   0  0  0  0  0  0  0  0  0  0  0  0
    1.1375   -1.0792    0.0000 C   0  0  0  0  0  0  0  0  0  0  0  0
    1.8583    0.1583    0.0000 C   0  0  0  0  0  0  0  0  0  0  0  0
    2.5625   -2.7375    0.0000 F   0  0  0  0  0  0  0  0  0  0  0  0
    7.5667   -2.3125    0.0000 O   0  0  0  0  0  0  0  0  0  0  0  0
    1.1417   -0.2542    0.0000 C   0  0  0  0  0  0  0  0  0  0  0  0
    0.4292    0.1625    0.0000 O   0  0  0  0  0  0  0  0  0  0  0  0
    6.1250    0.1500    0.0000 C   0  0  0  0  0  0  0  0  0  0  0  0
  2  6  2  0
  3  1  1  0
  4  3  2  0
  5  3  1  0
  6  1  1  0
  7  4  1  0
  8  5  2  0
  9 10  2  0
 10  4  1  0
 11  8  1  0
 12  2  1  0
 13 19  1  0
 14  1  1  0
 15  7  2  0
 16 11  1  0
 17 11  1  0
 18 12  2  0
 19 14  1  0
 20 17  1  0
 21 16  1  0
 22  9  1  0
 23 12  1  0
 24 20  1  0
 25 24  1  0
 26 14  1  0
  5 13  1  0
  2  7  1  0
  9  8  1  0
 24 21  1  0
M  END
>  <ID>  (1485) 


>  <MOLENAME>  (1485) 
NADIFLOXACIN

>  <therap>  (1485) 
antibacterial

>  <ref>  (1485) 
Chem Pharm Bull 37:2103 (1989); J Am Acad Dermatol 25:674 (1991); Eur J Clin Microbial Infect Dis 11:943 (1992)

>  <cas#>  (1485) 
124858-35-1

>  <source>  (1485) 
synthetic; OPC-7251

>  <status>  (1485) 
INN, BAN, JAN

>  <tradename>  (1485) 
ACUATIM

>  <SMILES>  (1485) 
CC1CCc2c(N3CCC(O)CC3)c(F)cc3c2n1cc(C(=O)O)c3=O

>  <standardized_failed>  (1485) 
False

$$$$

     RDKit          2D

 10  9  0  0  0  0  0  0  0  0999 V2000
    3.5417   -4.0167    0.0000 C   0  0  0  0  0  0  0  0  0  0  0  0
    4.2542   -3.6042    0.0000 N   0  0  0  0  0  0  0  0  0  0  0  0
    5.6792   -3.6042    0.0000 C   0  0  0  0  0  0  0  0  0  0  0  0
    3.5458   -4.8417    0.0000 O   0  0  0  0  0  0  0  0  0  0  0  0
    5.6792   -2.7792    0.0000 O   0  0  0  0  0  0  0  0  0  0  0  0
    2.8292   -3.6125    0.0000 C   0  0  0  0  0  0  0  0  0  0  0  0
    4.9667   -4.0167    0.0000 C   0  0  0  0  0  0  0  0  0  0  0  0
    2.1167   -4.0250    0.0000 S   0  0  0  0  0  0  0  0  0  0  0  0
    6.3917   -4.0083    0.0000 O   0  0  0  0  0  0  0  0  0  0  0  0
    2.8292   -2.7875    0.0000 C   0  0  0  0  0  0  0  0  0  0  0  0
  2  1  1  0
  3  7  1  0
  4  1  2  0
  5  3  2  0
  6  1  1  0
  7  2  1  0
  8  6  1  0
  9  3  1  0
 10  6  1  0
M  END
>  <ID>  (1486) 


>  <MOLENAME>  (1486) 
TIOPRONIN

>  <therap>  (1486) 
hepatoprotectant, mucolytic

>  <ref>  (1486) 
Agents Actions 11:741 (1981); J Int Med Res 10:325 (1982); Arthritis Rheum 25:698, 923 (1982)

>  <cas#>  (1486) 
1953-02-2

>  <source>  (1486) 
synthetic

>  <status>  (1486) 
INN, JAN

>  <tradename>  (1486) 
ACADIONE

>  <SMILES>  (1486) 
CC(S)C(=O)NCC(=O)O

>  <standardized_failed>  (1486) 
False

$$$$

     RDKit          2D

 14 14  0  0  0  0  0  0  0  0999 V2000
    6.7417   -2.4667    0.0000 S   0  0  0  0  0  0  0  0  0  0  0  0
    6.7292   -3.5542    0.0000 N   0  0  0  0  0  0  0  0  0  0  0  0
    6.7292   -4.3667    0.0000 C   0  0  0  0  0  0  0  0  0  0  0  0
    5.9167   -2.4667    0.0000 C   0  0  0  0  0  0  0  0  0  0  0  0
    6.7667   -1.7167    0.0000 O   0  0  0  0  0  0  0  0  0  0  0  0
    7.5667   -2.4667    0.0000 O   0  0  0  0  0  0  0  0  0  0  0  0
    7.5125   -4.6167    0.0000 N   0  0  0  0  0  0  0  0  0  0  0  0
    5.5042   -3.1875    0.0000 C   0  0  0  0  0  0  0  0  0  0  0  0
    5.5042   -1.7542    0.0000 C   0  0  0  0  0  0  0  0  0  0  0  0
    5.9167   -4.6167    0.0000 N   0  0  0  0  0  0  0  0  0  0  0  0
    4.2667   -2.4667    0.0000 C   0  0  0  0  0  0  0  0  0  0  0  0
    3.4417   -2.4667    0.0000 N   0  0  0  0  0  0  0  0  0  0  0  0
    4.6792   -3.1875    0.0000 C   0  0  0  0  0  0  0  0  0  0  0  0
    4.6792   -1.7542    0.0000 C   0  0  0  0  0  0  0  0  0  0  0  0
  2  1  1  0
  3  2  1  0
  4  1  1  0
  5  1  2  0
  6  1  2  0
  7  3  2  0
  8  4  2  0
  9  4  1  0
 10  3  1  0
 11 14  1  0
 12 11  1  0
 13  8  1  0
 14  9  2  0
 13 11  2  0
M  END
>  <ID>  (1487) 


>  <MOLENAME>  (1487) 
SULFAGUANIDINE

>  <therap>  (1487) 
antibacterial

>  <ref>  (1487) 
Bull Johns Hopkins Hosp 67:163 (1940); J Mt Sinai Hosp 10:343 (1943)

>  <cas#>  (1487) 
57-67-0

>  <source>  (1487) 
synthetic; RP-2275

>  <status>  (1487) 
NF-XI, INN, BAN

>  <tradename>  (1487) 
GANIDAN

>  <SMILES>  (1487) 
N=C(N)NS(=O)(=O)c1ccc(N)cc1

>  <standardized_failed>  (1487) 
False

$$$$

     RDKit          2D

 20 22  0  0  0  0  0  0  0  0999 V2000
    5.8958   -1.6958    0.0000 S   0  0  0  0  0  0  0  0  0  0  0  0
    6.5625   -1.9958    0.0000 C   0  0  0  0  0  0  0  0  0  0  0  0
    5.3000   -2.1292    0.0000 N   0  0  0  0  0  0  0  0  0  0  0  0
    7.1500   -1.5667    0.0000 C   0  0  0  0  0  0  0  0  0  0  0  0
    5.2792   -1.1667    0.0000 O   0  0  0  0  0  0  0  0  0  0  0  0
    6.1917   -0.9792    0.0000 O   0  0  0  0  0  0  0  0  0  0  0  0
    3.7792   -2.8250    0.0000 N   0  0  0  0  0  0  0  0  0  0  0  0
    8.3250   -0.7125    0.0000 N   0  0  0  0  0  0  0  0  0  0  0  0
    7.8125   -1.8625    0.0000 C   0  0  0  0  0  0  0  0  0  0  0  0
    4.6250   -1.7792    0.0000 C   0  0  0  0  0  0  0  0  0  0  0  0
    5.4208   -2.8500    0.0000 C   0  0  0  0  0  0  0  0  0  0  0  0
    6.6333   -2.7250    0.0000 C   0  0  0  0  0  0  0  0  0  0  0  0
    4.9750   -3.2917    0.0000 C   0  0  0  0  0  0  0  0  0  0  0  0
    3.9167   -2.1042    0.0000 C   0  0  0  0  0  0  0  0  0  0  0  0
    8.4000   -1.4375    0.0000 C   0  0  0  0  0  0  0  0  0  0  0  0
    4.2250   -3.2917    0.0000 C   0  0  0  0  0  0  0  0  0  0  0  0
    7.0708   -0.8458    0.0000 C   0  0  0  0  0  0  0  0  0  0  0  0
    7.3000   -3.0208    0.0000 C   0  0  0  0  0  0  0  0  0  0  0  0
    7.6583   -0.4167    0.0000 C   0  0  0  0  0  0  0  0  0  0  0  0
    7.8958   -2.5917    0.0000 C   0  0  0  0  0  0  0  0  0  0  0  0
  2  1  1  0
  3  1  1  0
  4  2  1  0
  5  1  2  0
  6  1  2  0
  7 14  1  0
  8 19  2  0
  9  4  1  0
 10  3  1  0
 11  3  1  0
 12  2  2  0
 13 11  1  0
 14 10  1  0
 15  9  2  0
 16 13  1  0
 17  4  2  0
 18 12  1  0
 19 17  1  0
 20  9  1  0
  8 15  1  0
 20 18  2  0
 16  7  1  0
M  END
>  <ID>  (1488) 


>  <MOLENAME>  (1488) 
FASUDIL HYDROCHLORIDE

>  <therap>  (1488) 
vasodilator (cerebral), Ca antagonist

>  <ref>  (1488) 
Br J Pharmacol 98:1091 (1989); J Neurosrg 76:571 (1992); Cardiovasc Drug Rev 10:333 (1992)

>  <cas#>  (1488) 
103745-39-7

>  <source>  (1488) 
synthetic; AT-877, HA-1077

>  <status>  (1488) 
INN

>  <tradename>  (1488) 
ERIL

>  <SMILES>  (1488) 
O=S(=O)(c1cccc2cnccc12)N1CCCNCC1

>  <standardized_failed>  (1488) 
False

$$$$

     RDKit          2D

 48 48  0  0  0  0  0  0  0  0999 V2000
    3.5750   -7.6417    0.0000 C   0  0  0  0  0  0  0  0  0  0  0  0
    4.5667   -6.6042    0.0000 N   0  0  0  0  0  0  0  0  0  0  0  0
    5.3542   -6.3750    0.0000 C   0  0  0  0  0  0  0  0  0  0  0  0
    5.0875   -4.1750    0.0000 C   0  0  0  0  0  0  0  0  0  0  0  0
    2.9792   -7.0667    0.0000 N   0  0  0  0  0  0  0  0  0  0  0  0
    3.0833   -3.4500    0.0000 C   0  0  0  0  0  0  0  0  0  0  0  0
    4.9125   -4.9792    0.0000 N   0  0  0  0  0  0  0  0  0  0  0  0
    4.3708   -7.4083    0.0000 C   0  0  0  0  0  0  0  0  0  0  0  0
    5.5708   -5.5833    0.0000 C   0  0  0  0  0  0  0  0  0  0  0  0
    3.7583   -3.9292    0.0000 N   0  0  0  0  0  0  0  0  0  0  0  0
    6.3375   -5.2875    0.0000 C   0  0  0  0  0  0  0  0  0  0  0  0
    2.1583   -7.3083    0.0000 C   0  0  0  0  0  0  0  0  0  0  0  0
   -0.8667   -2.3208    0.0000 C   0  0  0  0  0  0  0  0  0  0  0  0
    1.6792   -6.6375    0.0000 C   0  0  0  0  0  0  0  0  0  0  0  0
    7.1208   -5.6500    0.0000 C   0  0  0  0  0  0  0  0  0  0  0  0
    4.5333   -3.5708    0.0000 C   0  0  0  0  0  0  0  0  0  0  0  0
   -0.4417   -1.5875    0.0000 N   0  0  0  0  0  0  0  0  0  0  0  0
    3.3833   -8.4375    0.0000 O   0  0  0  0  0  0  0  0  0  0  0  0
    5.9625   -6.9167    0.0000 O   0  0  0  0  0  0  0  0  0  0  0  0
    5.8708   -4.1500    0.0000 O   0  0  0  0  0  0  0  0  0  0  0  0
    3.0833   -2.6292    0.0000 O   0  0  0  0  0  0  0  0  0  0  0  0
    1.8208   -8.0625    0.0000 C   0  0  0  0  0  0  0  0  0  0  0  0
    0.9083   -6.8458    0.0000 O   0  0  0  0  0  0  0  0  0  0  0  0
    7.7125   -5.3708    0.0000 O   0  0  0  0  0  0  0  0  0  0  0  0
    2.3125   -3.7208    0.0000 C   0  0  0  0  0  0  0  0  0  0  0  0
   -0.4667   -3.0417    0.0000 N   0  0  0  0  0  0  0  0  0  0  0  0
   -1.6583   -2.3000    0.0000 N   0  0  0  0  0  0  0  0  0  0  0  0
    4.9667   -7.9750    0.0000 C   0  0  0  0  0  0  0  0  0  0  0  0
    1.0125   -8.2208    0.0000 C   0  0  0  0  0  0  0  0  0  0  0  0
    1.8917   -5.8375    0.0000 O   0  0  0  0  0  0  0  0  0  0  0  0
   -0.6083   -8.5292    0.0000 C   0  0  0  0  0  0  0  0  0  0  0  0
    7.1208   -6.4292    0.0000 O   0  0  0  0  0  0  0  0  0  0  0  0
    2.3417   -4.5792    0.0000 N   0  0  0  0  0  0  0  0  0  0  0  0
    0.7458   -8.9958    0.0000 C   0  0  0  0  0  0  0  0  0  0  0  0
    0.4708   -7.5958    0.0000 C   0  0  0  0  0  0  0  0  0  0  0  0
    4.3458   -0.1000    0.0000 N   0  0  0  0  0  0  0  0  0  0  0  0
   -0.3375   -7.7500    0.0000 C   0  0  0  0  0  0  0  0  0  0  0  0
   -0.0625   -9.1542    0.0000 C   0  0  0  0  0  0  0  0  0  0  0  0
   -1.4083   -8.7417    0.0000 O   0  0  0  0  0  0  0  0  0  0  0  0
    4.6958   -2.7667    0.0000 C   0  0  0  0  0  0  0  0  0  0  0  0
    0.3375   -2.9042    0.0000 C   0  0  0  0  0  0  0  0  0  0  0  0
    1.6375   -3.2625    0.0000 C   0  0  0  0  0  0  0  0  0  0  0  0
    3.9625   -0.8250    0.0000 C   0  0  0  0  0  0  0  0  0  0  0  0
    4.7750   -8.7750    0.0000 C   0  0  0  0  0  0  0  0  0  0  0  0
    5.7583   -7.7417    0.0000 C   0  0  0  0  0  0  0  0  0  0  0  0
    0.8583   -3.5375    0.0000 C   0  0  0  0  0  0  0  0  0  0  0  0
    4.1375   -2.1542    0.0000 C   0  0  0  0  0  0  0  0  0  0  0  0
    4.5208   -1.4292    0.0000 C   0  0  0  0  0  0  0  0  0  0  0  0
  8  2  1  1
  3  2  1  0
  4  7  1  0
  5  1  1  0
  6 10  1  0
  7  9  1  0
  8  1  1  0
  9  3  1  0
 10 16  1  0
  9 11  1  1
 12  5  1  0
 13 26  1  0
 14 12  1  0
 15 11  1  0
 16  4  1  0
 17 13  2  0
 18  1  2  0
 19  3  2  0
 20  4  2  0
 21  6  2  0
 12 22  1  1
 23 14  2  0
 24 15  2  0
 25  6  1  0
 26 41  1  0
 27 13  1  0
  8 28  1  0
 29 22  1  0
 30 14  1  0
 31 38  2  0
 32 15  1  0
 25 33  1  1
 34 29  2  0
 35 29  1  0
 36 43  1  0
 37 35  2  0
 38 34  1  0
 39 31  1  0
 16 40  1  1
 41 46  1  0
 25 42  1  0
 43 48  1  0
 44 28  1  0
 45 28  1  0
 46 42  1  0
 47 40  1  0
 48 47  1  0
 31 37  1  0
M  END
>  <ID>  (1489) 


>  <MOLENAME>  (1489) 
THYMOPENTIN

>  <therap>  (1489) 
immunoregulator

>  <ref>  (1489) 
Lancet 1:551 (1983); Int J Clin Pharmacol Res 4:431 (1984)

>  <cas#>  (1489) 
69558-55-0

>  <source>  (1489) 
synthetic; ORF-15244

>  <status>  (1489) 
INN

>  <tradename>  (1489) 
IMMUNOX

>  <SMILES>  (1489) 
CC(C)[C@H](NC(=O)[C@H](CC(=O)O)NC(=O)[C@H](CCCCN)NC(=O)[C@@H](N)CCCNC(=N)N)C(=O)N[C@@H](Cc1ccc(O)cc1)C(=O)O

>  <standardized_failed>  (1489) 
False

$$$$

     RDKit          2D

 10  8  0  0  0  0  0  0  0  0999 V2000
    7.5417   -1.8625    0.0000 C   0  0  0  0  0  0  0  0  0  0  0  0
    7.5417   -1.0375    0.0000 O   0  0  0  0  0  0  0  0  0  0  0  0
    6.8292   -2.2750    0.0000 C   0  0  0  0  0  0  0  0  0  0  0  0
    8.2542   -2.2750    0.0000 O   0  0  0  0  0  0  0  0  0  0  0  0
    6.8292   -3.1000    0.0000 N   0  0  0  0  0  0  0  0  0  0  0  0
    2.5542   -3.0292    0.0000 Cl  0  0  0  0  0  0  0  0  0  0  0  0
    3.9792   -2.2875    0.0000 N   0  0  0  0  0  0  0  0  0  0  0  0
    4.6917   -1.8750    0.0000 C   0  0  0  0  0  0  0  0  0  0  0  0
    6.1167   -1.8667    0.0000 C   0  0  0  0  0  0  0  0  0  0  0  0
    5.4042   -2.2792    0.0000 C   0  0  0  0  0  0  0  0  0  0  0  0
  2  1  2  0
  3  1  1  0
  4  1  1  0
  5  3  1  0
  7  8  1  0
  8 10  1  0
  9  3  1  0
 10  9  1  0
M  END
>  <ID>  (1490) 


>  <MOLENAME>  (1490) 
ORNITHINE HYDROCHLORIDE

>  <therap>  (1490) 
hepatoprotectant, anticholesteremic

>  <ref>  (1490) 
Trends Biochem Sci 7:156 (1982); Metab Brain Dis 8:151 (1993)

>  <cas#>  (1490) 
70-26-8

>  <source>  (1490) 
widespread in nature

>  <status>  (1490) 
INN

>  <tradename>  (1490) 
nan

>  <SMILES>  (1490) 
NCCCC(N)C(=O)O

>  <standardized_failed>  (1490) 
False

$$$$

     RDKit          2D

 26 29  0  0  0  0  0  0  0  0999 V2000
    6.9125   -3.4000    0.0000 C   0  0  0  0  0  0  0  0  0  0  0  0
    4.7667   -4.6375    0.0000 C   0  0  0  0  0  0  0  0  0  0  0  0
    7.6917   -3.1375    0.0000 C   0  0  0  0  0  0  0  0  0  0  0  0
    5.4792   -4.2250    0.0000 C   0  0  0  0  0  0  0  0  0  0  0  0
    6.1917   -4.6375    0.0000 C   0  0  0  0  0  0  0  0  0  0  0  0
    6.9125   -4.2250    0.0000 C   0  0  0  0  0  0  0  0  0  0  0  0
    5.4792   -3.4000    0.0000 C   0  0  0  0  0  0  0  0  0  0  0  0
    4.7667   -5.4625    0.0000 C   0  0  0  0  0  0  0  0  0  0  0  0
    6.1917   -2.9875    0.0000 C   0  0  0  0  0  0  0  0  0  0  0  0
    4.0542   -5.8750    0.0000 C   0  0  0  0  0  0  0  0  0  0  0  0
    8.0292   -2.3875    0.0000 C   0  0  0  0  0  0  0  0  0  0  0  0
    8.1792   -3.8125    0.0000 C   0  0  0  0  0  0  0  0  0  0  0  0
    7.6917   -4.4750    0.0000 C   0  0  0  0  0  0  0  0  0  0  0  0
    6.1917   -5.4625    0.0000 C   0  0  0  0  0  0  0  0  0  0  0  0
    4.0542   -4.2250    0.0000 C   0  0  0  0  0  0  0  0  0  0  0  0
    5.4792   -5.8750    0.0000 C   0  0  0  0  0  0  0  0  0  0  0  0
    3.3375   -5.4625    0.0000 C   0  0  0  0  0  0  0  0  0  0  0  0
    4.7625   -2.9750    0.0000 O   0  0  0  0  0  0  0  0  0  0  0  0
    8.8542   -2.3000    0.0000 O   0  0  0  0  0  0  0  0  0  0  0  0
    2.6167   -5.8875    0.0000 O   0  0  0  0  0  0  0  0  0  0  0  0
    8.5000   -3.2125    0.0000 O   0  0  0  0  0  0  0  0  0  0  0  0
    6.9417   -2.5500    0.0000 C   0  0  0  0  0  0  0  0  0  0  0  0
    3.3375   -4.6375    0.0000 C   0  0  0  0  0  0  0  0  0  0  0  0
    4.7667   -3.8125    0.0000 C   0  0  0  0  0  0  0  0  0  0  0  0
    7.5417   -1.7125    0.0000 C   0  0  0  0  0  0  0  0  0  0  0  0
    8.0000   -1.1500    0.0000 O   0  0  0  0  0  0  0  0  0  0  0  0
  2  4  1  0
  3  1  1  0
  4  7  1  0
  5  6  1  0
  6  1  1  0
  7  9  1  0
  8  2  1  0
  9  1  1  0
 10  8  2  0
  3 11  1  0
 12  3  1  0
 13  6  1  0
 14  5  1  0
 15  2  1  0
 16 14  1  0
 17 23  1  0
 18  7  2  0
 19 11  2  0
 20 17  2  0
  3 21  1  6
  1 22  1  1
 23 15  1  0
  2 24  1  1
 25 11  1  0
 26 25  1  0
 12 13  1  0
  4  5  1  0
 16  8  1  0
 10 17  1  0
M  END
>  <ID>  (1491) 


>  <MOLENAME>  (1491) 
CORTISONE

>  <therap>  (1491) 
antiinflammatory, glucocorticoid

>  <ref>  (1491) 
Helv Chim Acta 19:1107 (1936); 20:978 (1937);  JACS 70:1454 (1948) 

>  <cas#>  (1491) 
53-06-5

>  <source>  (1491) 
adrenal cortical hormone

>  <status>  (1491) 
INN, BAN

>  <tradename>  (1491) 
nan

>  <SMILES>  (1491) 
C[C@]12CC(=O)C3C(CCC4=CC(=O)CC[C@@]43C)C1CC[C@]2(O)C(=O)CO

>  <standardized_failed>  (1491) 
False

$$$$

     RDKit          2D

 12 12  0  0  0  0  0  0  0  0999 V2000
    4.2708   -1.9333    0.0000 C   0  0  0  0  0  0  0  0  0  0  0  0
    4.9792   -1.5167    0.0000 C   0  0  0  0  0  0  0  0  0  0  0  0
    4.9792   -0.6917    0.0000 O   0  0  0  0  0  0  0  0  0  0  0  0
    4.2708   -2.7625    0.0000 C   0  0  0  0  0  0  0  0  0  0  0  0
    3.5542   -1.5208    0.0000 C   0  0  0  0  0  0  0  0  0  0  0  0
    5.6917   -1.9292    0.0000 C   0  0  0  0  0  0  0  0  0  0  0  0
    6.4042   -1.5167    0.0000 C   0  0  0  0  0  0  0  0  0  0  0  0
    7.1167   -1.9250    0.0000 C   0  0  0  0  0  0  0  0  0  0  0  0
    7.8292   -1.5125    0.0000 C   0  0  0  0  0  0  0  0  0  0  0  0
    3.5542   -3.1750    0.0000 C   0  0  0  0  0  0  0  0  0  0  0  0
    2.8417   -1.9375    0.0000 C   0  0  0  0  0  0  0  0  0  0  0  0
    2.8417   -2.7625    0.0000 C   0  0  0  0  0  0  0  0  0  0  0  0
  2  1  1  0
  3  2  1  0
  4  1  2  0
  5  1  1  0
  6  2  1  0
  7  6  1  0
  8  7  1  0
  9  8  1  0
 10  4  1  0
 11  5  2  0
 12 11  1  0
 10 12  2  0
M  END
>  <ID>  (1492) 


>  <MOLENAME>  (1492) 
FENIPENTOL

>  <therap>  (1492) 
choleretic

>  <ref>  (1492) 
Arzneim Forsch 10:255 (1960); 14:195 (1964); 20:693 (1970)

>  <cas#>  (1492) 
583-03-9

>  <source>  (1492) 
synthetic

>  <status>  (1492) 
INN, JAN

>  <tradename>  (1492) 
PANCORAL

>  <SMILES>  (1492) 
CCCCC(O)c1ccccc1

>  <standardized_failed>  (1492) 
False

$$$$

     RDKit          2D

 13 14  0  0  0  0  0  0  0  0999 V2000
    5.2875   -2.7667    0.0000 N   0  0  0  0  0  0  0  0  0  0  0  0
    5.0292   -3.5542    0.0000 C   0  0  0  0  0  0  0  0  0  0  0  0
    4.6167   -2.2875    0.0000 N   0  0  0  0  0  0  0  0  0  0  0  0
    4.2042   -3.5542    0.0000 C   0  0  0  0  0  0  0  0  0  0  0  0
    3.9542   -2.7667    0.0000 C   0  0  0  0  0  0  0  0  0  0  0  0
    6.0750   -2.5167    0.0000 C   0  0  0  0  0  0  0  0  0  0  0  0
    5.5167   -4.2250    0.0000 O   0  0  0  0  0  0  0  0  0  0  0  0
    3.1667   -2.5167    0.0000 C   0  0  0  0  0  0  0  0  0  0  0  0
    6.6792   -3.0667    0.0000 C   0  0  0  0  0  0  0  0  0  0  0  0
    6.2417   -1.7125    0.0000 C   0  0  0  0  0  0  0  0  0  0  0  0
    7.0167   -1.4542    0.0000 C   0  0  0  0  0  0  0  0  0  0  0  0
    7.4667   -2.8167    0.0000 C   0  0  0  0  0  0  0  0  0  0  0  0
    7.6375   -2.0125    0.0000 C   0  0  0  0  0  0  0  0  0  0  0  0
  2  1  1  0
  3  1  1  0
  4  2  1  0
  5  3  2  0
  6  1  1  0
  7  2  2  0
  8  5  1  0
  9  6  2  0
 10  6  1  0
 11 10  2  0
 12  9  1  0
 13 11  1  0
  4  5  1  0
 13 12  2  0
M  END
>  <ID>  (1493) 


>  <MOLENAME>  (1493) 
EDARAVONE

>  <therap>  (1493) 
antioxidant, lipoxygenase inhibitor

>  <ref>  (1493) 
J Gastroenterol Hepatol 18:851 (2003); Am J Physiol Heart Circ Physiol 289:H2514 (2005)

>  <cas#>  (1493) 
89-25-8

>  <source>  (1493) 
synthetic; MCI-186

>  <status>  (1493) 
INN

>  <tradename>  (1493) 
nan

>  <SMILES>  (1493) 
CC1=NN(c2ccccc2)C(=O)C1

>  <standardized_failed>  (1493) 
False

$$$$

     RDKit          2D

 15 15  0  0  0  0  0  0  0  0999 V2000
    5.3417   -2.1167    0.0000 C   0  0  0  0  0  0  0  0  0  0  0  0
    4.6292   -1.7042    0.0000 O   0  0  0  0  0  0  0  0  0  0  0  0
    3.9167   -2.1167    0.0000 C   0  0  0  0  0  0  0  0  0  0  0  0
    3.9167   -2.9500    0.0000 C   0  0  0  0  0  0  0  0  0  0  0  0
    4.6292   -3.3542    0.0000 O   0  0  0  0  0  0  0  0  0  0  0  0
    5.3417   -2.9417    0.0000 O   0  0  0  0  0  0  0  0  0  0  0  0
    6.0542   -1.7042    0.0000 N   0  0  0  0  0  0  0  0  0  0  0  0
    4.6292   -4.1792    0.0000 C   0  0  0  0  0  0  0  0  0  0  0  0
    3.2000   -3.3625    0.0000 C   0  0  0  0  0  0  0  0  0  0  0  0
    3.2000   -1.7042    0.0000 C   0  0  0  0  0  0  0  0  0  0  0  0
    6.7667   -2.1125    0.0000 C   0  0  0  0  0  0  0  0  0  0  0  0
    5.3417   -4.5875    0.0000 C   0  0  0  0  0  0  0  0  0  0  0  0
    3.9125   -4.5917    0.0000 C   0  0  0  0  0  0  0  0  0  0  0  0
    2.4875   -2.9500    0.0000 C   0  0  0  0  0  0  0  0  0  0  0  0
    2.4875   -2.1250    0.0000 C   0  0  0  0  0  0  0  0  0  0  0  0
  2  1  1  0
  3  2  1  0
  4  3  2  0
  5  4  1  0
  6  1  2  0
  7  1  1  0
  8  5  1  0
  9  4  1  0
 10  3  1  0
 11  7  1  0
 12  8  1  0
 13  8  1  0
 14 15  1  0
 15 10  2  0
  9 14  2  0
M  END
>  <ID>  (1494) 


>  <MOLENAME>  (1494) 
PROPOXUR

>  <therap>  (1494) 
insecticide

>  <ref>  (1494) 
Toxicol Appl Pharmacol 14:515 (1969); Vet Med Rev 1:80 (1985)

>  <cas#>  (1494) 
114-26-1

>  <source>  (1494) 
synthetic; BAY-39007, BAY-9010

>  <status>  (1494) 
BAN

>  <tradename>  (1494) 
BAYGON

>  <SMILES>  (1494) 
CNC(=O)Oc1c(OC(C)C)cccc1

>  <standardized_failed>  (1494) 
False

$$$$

     RDKit          2D

 34 38  0  0  0  0  0  0  0  0999 V2000
    6.9625   -3.5625    0.0000 C   0  0  0  0  0  0  0  0  0  0  0  0
    6.2875   -4.7542    0.0000 C   0  0  0  0  0  0  0  0  0  0  0  0
    6.9625   -4.3500    0.0000 C   0  0  0  0  0  0  0  0  0  0  0  0
    4.9042   -4.7667    0.0000 C   0  0  0  0  0  0  0  0  0  0  0  0
    5.5875   -4.3625    0.0000 C   0  0  0  0  0  0  0  0  0  0  0  0
    6.2750   -3.1667    0.0000 C   0  0  0  0  0  0  0  0  0  0  0  0
    5.5875   -3.5667    0.0000 C   0  0  0  0  0  0  0  0  0  0  0  0
    4.9125   -5.5542    0.0000 C   0  0  0  0  0  0  0  0  0  0  0  0
    7.6417   -3.1667    0.0000 C   0  0  0  0  0  0  0  0  0  0  0  0
    4.2250   -5.9625    0.0000 C   0  0  0  0  0  0  0  0  0  0  0  0
    8.3292   -1.9875    0.0000 C   0  0  0  0  0  0  0  0  0  0  0  0
    7.6417   -2.3792    0.0000 C   0  0  0  0  0  0  0  0  0  0  0  0
    8.3250   -3.5625    0.0000 C   0  0  0  0  0  0  0  0  0  0  0  0
    6.2875   -5.5500    0.0000 C   0  0  0  0  0  0  0  0  0  0  0  0
    8.7375   -1.2667    0.0000 C   0  0  0  0  0  0  0  0  0  0  0  0
    4.2125   -4.3667    0.0000 C   0  0  0  0  0  0  0  0  0  0  0  0
    7.6500   -4.7417    0.0000 C   0  0  0  0  0  0  0  0  0  0  0  0
    5.6000   -5.9542    0.0000 C   0  0  0  0  0  0  0  0  0  0  0  0
    3.5375   -5.5667    0.0000 C   0  0  0  0  0  0  0  0  0  0  0  0
    4.8667   -3.1625    0.0000 O   0  0  0  0  0  0  0  0  0  0  0  0
    8.3292   -4.3500    0.0000 C   0  0  0  0  0  0  0  0  0  0  0  0
    9.0125   -2.3875    0.0000 C   0  0  0  0  0  0  0  0  0  0  0  0
    9.0042   -3.1750    0.0000 C   0  0  0  0  0  0  0  0  0  0  0  0
    8.3167   -0.5542    0.0000 O   0  0  0  0  0  0  0  0  0  0  0  0
    3.5292   -4.7750    0.0000 C   0  0  0  0  0  0  0  0  0  0  0  0
    6.2792   -3.9292    0.0000 C   0  0  0  0  0  0  0  0  0  0  0  0
    4.9000   -3.9417    0.0000 C   0  0  0  0  0  0  0  0  0  0  0  0
    6.9542   -5.1750    0.0000 C   0  0  0  0  0  0  0  0  0  0  0  0
    9.5625   -1.2542    0.0000 O   0  0  0  0  0  0  0  0  0  0  0  0
    3.8125   -6.6750    0.0000 C   0  0  0  0  0  0  0  0  0  0  0  0
    4.6375   -6.6750    0.0000 C   0  0  0  0  0  0  0  0  0  0  0  0
    2.8167   -5.9750    0.0000 O   0  0  0  0  0  0  0  0  0  0  0  0
    7.7417   -1.4000    0.0000 C   0  0  0  0  0  0  0  0  0  0  0  0
    9.0375   -3.9750    0.0000 C   0  0  0  0  0  0  0  0  0  0  0  0
  2  3  1  0
  3  1  1  0
  4  5  1  0
  5  7  1  0
  6  1  2  0
  7  6  1  0
  8  4  1  0
  9  1  1  0
 10  8  1  0
 11 12  1  0
  9 12  1  6
 13  9  1  0
 14  2  1  0
 11 15  1  0
 16  4  1  0
 17  3  1  0
 18 14  1  0
 19 25  1  0
 20  7  2  0
 21 13  1  0
 22 23  1  0
 23 13  1  0
 24 15  2  0
 25 16  1  0
  2 26  1  1
  4 27  1  1
  3 28  1  6
 29 15  1  0
 30 10  1  0
 31 10  1  0
 19 32  1  1
 11 33  1  6
 13 34  1  1
 21 17  1  0
  5  2  1  0
 22 11  1  0
  8 18  1  0
 10 19  1  0
M  END
>  <ID>  (1495) 


>  <MOLENAME>  (1495) 
ENOXOLONE

>  <therap>  (1495) 
antitussive, antiinflammatory, antibacterial

>  <ref>  (1495) 
Pure Appl. Chem. (2002), 74(7), 1189-1198; Mini-Rev. Chem. (2011), 11(10), 881-7; Phytother. Res. (2008), 22(6), 709-24

>  <cas#>  (1495) 
471-53-4

>  <source>  (1495) 
derivative

>  <status>  (1495) 
INN, BAN, JAN

>  <tradename>  (1495) 
nan

>  <SMILES>  (1495) 
CC1(C)C2CC[C@]3(C)C(C(=O)C=C4[C@@H]5C[C@@](C)(C(=O)O)CC[C@]5(C)CC[C@]43C)[C@@]2(C)CC[C@@H]1O

>  <standardized_failed>  (1495) 
False

$$$$

     RDKit          2D

 52 56  0  0  0  0  0  0  0  0999 V2000
    4.7292   -1.1417    0.0000 C   0  0  0  0  0  0  0  0  0  0  0  0
    4.7292   -0.3167    0.0000 C   0  0  0  0  0  0  0  0  0  0  0  0
    4.0125   -1.5542    0.0000 C   0  0  0  0  0  0  0  0  0  0  0  0
    3.2917   -1.1417    0.0000 C   0  0  0  0  0  0  0  0  0  0  0  0
    6.1542   -1.9667    0.0000 C   0  0  0  0  0  0  0  0  0  0  0  0
    4.0125    0.0958    0.0000 O   0  0  0  0  0  0  0  0  0  0  0  0
    3.3000   -0.3167    0.0000 C   0  0  0  0  0  0  0  0  0  0  0  0
    6.1542   -2.7917    0.0000 C   0  0  0  0  0  0  0  0  0  0  0  0
   10.1417   -3.6292    0.0000 C   0  0  0  0  0  0  0  0  0  0  0  0
    5.4417   -1.5542    0.0000 O   0  0  0  0  0  0  0  0  0  0  0  0
    6.8792   -3.2042    0.0000 C   0  0  0  0  0  0  0  0  0  0  0  0
   10.8750   -4.0417    0.0000 C   0  0  0  0  0  0  0  0  0  0  0  0
    6.8792   -1.5542    0.0000 O   0  0  0  0  0  0  0  0  0  0  0  0
   10.1417   -2.8042    0.0000 C   0  0  0  0  0  0  0  0  0  0  0  0
    7.6000   -2.7917    0.0000 C   0  0  0  0  0  0  0  0  0  0  0  0
    2.5792   -1.5542    0.0000 C   0  0  0  0  0  0  0  0  0  0  0  0
   10.8750   -2.3917    0.0000 O   0  0  0  0  0  0  0  0  0  0  0  0
    7.6000   -1.9667    0.0000 C   0  0  0  0  0  0  0  0  0  0  0  0
   11.5917   -3.6292    0.0000 C   0  0  0  0  0  0  0  0  0  0  0  0
    5.4417    0.0958    0.0000 C   0  0  0  0  0  0  0  0  0  0  0  0
   11.5917   -2.8042    0.0000 C   0  0  0  0  0  0  0  0  0  0  0  0
    2.5792    0.0958    0.0000 C   0  0  0  0  0  0  0  0  0  0  0  0
    1.8667   -1.1417    0.0000 C   0  0  0  0  0  0  0  0  0  0  0  0
    5.4417    0.9083    0.0000 C   0  0  0  0  0  0  0  0  0  0  0  0
    6.1542    1.3208    0.0000 C   0  0  0  0  0  0  0  0  0  0  0  0
    9.4375   -2.3917    0.0000 O   0  0  0  0  0  0  0  0  0  0  0  0
    4.0042   -2.3792    0.0000 O   0  0  0  0  0  0  0  0  0  0  0  0
    1.8667   -0.3167    0.0000 C   0  0  0  0  0  0  0  0  0  0  0  0
    8.6250   -1.9542    0.0000 C   0  0  0  0  0  0  0  0  0  0  0  0
    6.8750    0.9083    0.0000 C   0  0  0  0  0  0  0  0  0  0  0  0
    6.1542   -0.3292    0.0000 C   0  0  0  0  0  0  0  0  0  0  0  0
    6.8667    0.0833    0.0000 C   0  0  0  0  0  0  0  0  0  0  0  0
    5.4417   -3.2042    0.0000 O   0  0  0  0  0  0  0  0  0  0  0  0
    9.4375   -4.0417    0.0000 O   0  0  0  0  0  0  0  0  0  0  0  0
    6.8750   -4.0292    0.0000 O   0  0  0  0  0  0  0  0  0  0  0  0
   10.8750   -4.8792    0.0000 O   0  0  0  0  0  0  0  0  0  0  0  0
    2.5792   -2.3792    0.0000 O   0  0  0  0  0  0  0  0  0  0  0  0
    8.3125   -3.2042    0.0000 O   0  0  0  0  0  0  0  0  0  0  0  0
   12.3042   -4.0417    0.0000 O   0  0  0  0  0  0  0  0  0  0  0  0
    6.1542    2.1458    0.0000 O   0  0  0  0  0  0  0  0  0  0  0  0
    7.5917    1.3208    0.0000 O   0  0  0  0  0  0  0  0  0  0  0  0
    1.1542    0.0958    0.0000 O   0  0  0  0  0  0  0  0  0  0  0  0
   12.3042   -2.3917    0.0000 C   0  0  0  0  0  0  0  0  0  0  0  0
    0.4417    2.1583    0.0000 O   0  0  0  0  0  0  0  0  0  0  0  0
    4.7250    3.7958    0.0000 O   0  0  0  0  0  0  0  0  0  0  0  0
    9.7292    0.8958    0.0000 O   0  0  0  0  0  0  0  0  0  0  0  0
    0.4375    1.3333    0.0000 C   0  0  0  0  0  0  0  0  0  0  0  0
    9.0167    1.3125    0.0000 C   0  0  0  0  0  0  0  0  0  0  0  0
    5.4375    3.3833    0.0000 C   0  0  0  0  0  0  0  0  0  0  0  0
    5.4375    2.5583    0.0000 C   0  0  0  0  0  0  0  0  0  0  0  0
    8.3000    0.9083    0.0000 C   0  0  0  0  0  0  0  0  0  0  0  0
    1.1542    0.9208    0.0000 C   0  0  0  0  0  0  0  0  0  0  0  0
  2  1  2  0
  3  1  1  0
  4  3  1  0
  5 10  1  0
  6  2  1  0
  7  4  2  0
  8  5  1  0
  9 14  1  0
 10  1  1  0
 11  8  1  0
 12  9  1  0
 13  5  1  0
 14 26  1  6
 15 18  1  0
 16  4  1  0
 17 14  1  0
 18 13  1  0
 19 21  1  0
 20  2  1  0
 21 17  1  0
 22  7  1  0
 23 16  2  0
 24 20  2  0
 25 24  1  0
 26 29  1  0
 27  3  2  0
 28 23  1  0
 18 29  1  6
 30 32  1  0
 31 20  1  0
 32 31  2  0
  8 33  1  1
  9 34  1  1
 11 35  1  6
 12 36  1  1
 37 16  1  0
 15 38  1  1
 19 39  1  6
 40 25  1  0
 41 30  1  0
 42 28  1  0
 21 43  1  1
 44 47  1  0
 45 49  1  0
 46 48  1  0
 47 52  1  0
 48 51  1  0
 49 50  1  0
 50 40  1  0
 51 41  1  0
 52 42  1  0
  7  6  1  0
 11 15  1  0
 22 28  2  0
 25 30  2  0
 12 19  1  0
M  END
>  <ID>  (1496) 


>  <MOLENAME>  (1496) 
TROXERUTIN

>  <therap>  (1496) 
vasoprotectant

>  <ref>  (1496) 
Arzneim Forsch 26:925 (1976)

>  <cas#>  (1496) 
7085-55-4

>  <source>  (1496) 
derivative; rutin 7,3',4'-trihydroxyethyl ether; Z-6000, THR

>  <status>  (1496) 
INN, BAN

>  <tradename>  (1496) 
POSORUTIN

>  <SMILES>  (1496) 
C[C@@H]1O[C@@H](OC[C@H]2OC(Oc3c(-c4cc(OCCO)c(OCCO)cc4)oc4c(c(O)cc(OCCO)c4)c3=O)[C@H](O)[C@@H](O)[C@@H]2O)[C@H](O)[C@H](O)[C@H]1O

>  <standardized_failed>  (1496) 
False

$$$$

     RDKit          2D

 14 15  0  0  0  0  0  0  0  0999 V2000
    3.6375   -0.1250    0.0000 C   0  0  0  0  0  0  0  0  0  0  0  0
    3.6375   -0.9625    0.0000 C   0  0  0  0  0  0  0  0  0  0  0  0
    2.8750    0.2875    0.0000 O   0  0  0  0  0  0  0  0  0  0  0  0
    2.8750   -1.3792    0.0000 C   0  0  0  0  0  0  0  0  0  0  0  0
    2.1250   -0.9625    0.0000 C   0  0  0  0  0  0  0  0  0  0  0  0
    2.1250   -0.1250    0.0000 C   0  0  0  0  0  0  0  0  0  0  0  0
    4.4125    0.2875    0.0000 C   0  0  0  0  0  0  0  0  0  0  0  0
    2.8750   -2.2125    0.0000 O   0  0  0  0  0  0  0  0  0  0  0  0
    4.4125    1.1250    0.0000 O   0  0  0  0  0  0  0  0  0  0  0  0
    5.1667   -0.1250    0.0000 O   0  0  0  0  0  0  0  0  0  0  0  0
    1.3667   -1.3750    0.0000 C   0  0  0  0  0  0  0  0  0  0  0  0
    1.3667    0.2875    0.0000 C   0  0  0  0  0  0  0  0  0  0  0  0
    0.6125   -0.9625    0.0000 C   0  0  0  0  0  0  0  0  0  0  0  0
    0.6125   -0.1250    0.0000 C   0  0  0  0  0  0  0  0  0  0  0  0
  2  1  2  0
  3  1  1  0
  4  2  1  0
  5  6  2  0
  6  3  1  0
  7  1  1  0
  8  4  2  0
  9  7  2  0
 10  7  1  0
 11  5  1  0
 12  6  1  0
 13 14  1  0
 14 12  2  0
  4  5  1  0
 13 11  2  0
M  END
>  <ID>  (1497) 


>  <MOLENAME>  (1497) 
CHROMOCARB

>  <therap>  (1497) 
vascular protectant

>  <ref>  (1497) 
Curr Ther Res 35:1033 (1984); 36:293 (1984); Biopharm Drug Dispos 7:301 (1986)

>  <cas#>  (1497) 
4940-39-0

>  <source>  (1497) 
synthetic

>  <status>  (1497) 
INN

>  <tradename>  (1497) 
FLUDARENE

>  <SMILES>  (1497) 
O=C(O)c1cc(=O)c2c(cccc2)o1

>  <standardized_failed>  (1497) 
False

$$$$

     RDKit          2D

 30 34  0  0  0  0  0  0  0  0999 V2000
    5.1292   -3.1542    0.0000 C   0  0  0  0  0  0  0  0  0  0  0  0
    5.1167   -2.3292    0.0000 C   0  0  0  0  0  0  0  0  0  0  0  0
    3.7000   -2.3375    0.0000 C   0  0  0  0  0  0  0  0  0  0  0  0
    4.4042   -1.9167    0.0000 C   0  0  0  0  0  0  0  0  0  0  0  0
    6.4375   -2.4542    0.0000 N   0  0  0  0  0  0  0  0  0  0  0  0
    3.7000   -3.1625    0.0000 C   0  0  0  0  0  0  0  0  0  0  0  0
    2.9792   -3.5792    0.0000 N   0  0  0  0  0  0  0  0  0  0  0  0
    6.1042   -3.2125    0.0000 C   0  0  0  0  0  0  0  0  0  0  0  0
    5.8250   -1.9125    0.0000 C   0  0  0  0  0  0  0  0  0  0  0  0
    4.4167   -3.5750    0.0000 C   0  0  0  0  0  0  0  0  0  0  0  0
    0.8417   -0.6917    0.0000 C   0  0  0  0  0  0  0  0  0  0  0  0
    2.2667   -3.1667    0.0000 C   0  0  0  0  0  0  0  0  0  0  0  0
    2.9792   -1.9250    0.0000 C   0  0  0  0  0  0  0  0  0  0  0  0
    2.2667   -2.3375    0.0000 C   0  0  0  0  0  0  0  0  0  0  0  0
    1.5542   -1.1042    0.0000 N   0  0  0  0  0  0  0  0  0  0  0  0
    0.1292   -1.1042    0.0000 O   0  0  0  0  0  0  0  0  0  0  0  0
    0.8417    0.1333    0.0000 O   0  0  0  0  0  0  0  0  0  0  0  0
    1.5542   -1.9292    0.0000 C   0  0  0  0  0  0  0  0  0  0  0  0
    4.4000   -1.1042    0.0000 C   0  0  0  0  0  0  0  0  0  0  0  0
    7.2417   -2.2792    0.0000 C   0  0  0  0  0  0  0  0  0  0  0  0
    2.9875   -4.4042    0.0000 C   0  0  0  0  0  0  0  0  0  0  0  0
    0.1292    0.5458    0.0000 C   0  0  0  0  0  0  0  0  0  0  0  0
    5.8167   -1.0917    0.0000 C   0  0  0  0  0  0  0  0  0  0  0  0
    0.1292    1.3708    0.0000 C   0  0  0  0  0  0  0  0  0  0  0  0
    5.1042   -0.6917    0.0000 C   0  0  0  0  0  0  0  0  0  0  0  0
    0.8417    1.7833    0.0000 C   0  0  0  0  0  0  0  0  0  0  0  0
   -0.5833    1.7833    0.0000 C   0  0  0  0  0  0  0  0  0  0  0  0
   -0.5875    2.6083    0.0000 C   0  0  0  0  0  0  0  0  0  0  0  0
    0.8417    2.6083    0.0000 C   0  0  0  0  0  0  0  0  0  0  0  0
    0.1292    3.0208    0.0000 C   0  0  0  0  0  0  0  0  0  0  0  0
  2  1  1  0
  3  6  1  0
  4  2  1  0
  5  8  1  0
  6 10  1  0
  7  6  1  0
  8  1  2  0
  9  2  2  0
 10  1  1  0
 11 15  1  0
 12  7  1  0
  3 13  1  1
 14 12  1  0
 15 18  1  0
 16 11  2  0
 17 11  1  0
 18 14  1  0
 19  4  2  0
 20  5  1  0
 21  7  1  0
 22 17  1  0
 23  9  1  0
 24 22  1  0
 25 23  2  0
 26 24  2  0
 27 24  1  0
 28 27  2  0
 29 26  1  0
 30 28  1  0
  9  5  1  0
  3  4  1  0
 25 19  1  0
 14 13  1  0
 30 29  2  0
M  END
>  <ID>  (1498) 


>  <MOLENAME>  (1498) 
METERGOLINE

>  <therap>  (1498) 
analgesic, antipyretic

>  <ref>  (1498) 
J. Neurosci. Res. (1981), 6(1), 1-11; Brain Res. (1980), 189(2), 449-57; Naunyn-Schmiedeberg's Arch. Pharmacol. (2004), 370(2), 114-123

>  <cas#>  (1498) 
17692-51-2

>  <source>  (1498) 
synthetic; FI-6337, MCE

>  <status>  (1498) 
INN, BAN

>  <tradename>  (1498) 
nan

>  <SMILES>  (1498) 
CN1CC(CNC(=O)OCc2ccccc2)C[C@H]2c3cccc4c3c(cn4C)CC21

>  <standardized_failed>  (1498) 
False

$$$$

     RDKit          2D

 19 21  0  0  0  0  0  0  0  0999 V2000
    0.0542   -0.5167    0.0000 C   0  0  0  0  0  0  0  0  0  0  0  0
    0.0542    0.7333    0.0000 C   0  0  0  0  0  0  0  0  0  0  0  0
   -1.0500   -1.1875    0.0000 C   0  0  0  0  0  0  0  0  0  0  0  0
   -2.1625   -0.5167    0.0000 C   0  0  0  0  0  0  0  0  0  0  0  0
    1.1667   -1.1875    0.0000 C   0  0  0  0  0  0  0  0  0  0  0  0
   -1.0500    1.4000    0.0000 C   0  0  0  0  0  0  0  0  0  0  0  0
   -2.1625    0.7333    0.0000 C   0  0  0  0  0  0  0  0  0  0  0  0
    2.2792   -0.5167    0.0000 C   0  0  0  0  0  0  0  0  0  0  0  0
    1.1667    1.4000    0.0000 O   0  0  0  0  0  0  0  0  0  0  0  0
    2.2792    0.7333    0.0000 C   0  0  0  0  0  0  0  0  0  0  0  0
   -3.3625    1.1500    0.0000 O   0  0  0  0  0  0  0  0  0  0  0  0
   -3.3625   -0.9375    0.0000 C   0  0  0  0  0  0  0  0  0  0  0  0
   -4.1125    0.1000    0.0000 C   0  0  0  0  0  0  0  0  0  0  0  0
    1.1667   -2.4375    0.0000 O   0  0  0  0  0  0  0  0  0  0  0  0
   -1.0500   -2.4375    0.0000 O   0  0  0  0  0  0  0  0  0  0  0  0
   -1.0500    2.6500    0.0000 O   0  0  0  0  0  0  0  0  0  0  0  0
    3.4000    1.4000    0.0000 C   0  0  0  0  0  0  0  0  0  0  0  0
    0.0542   -3.1000    0.0000 C   0  0  0  0  0  0  0  0  0  0  0  0
    0.0542    3.3125    0.0000 C   0  0  0  0  0  0  0  0  0  0  0  0
  2  1  1  0
  3  1  2  0
  4  3  1  0
  5  1  1  0
  6  2  2  0
  7  4  2  0
  8  5  1  0
  9  2  1  0
 10  8  2  0
 11  7  1  0
 12  4  1  0
 13 12  2  0
 14  5  2  0
 15  3  1  0
 16  6  1  0
 17 10  1  0
 18 15  1  0
 19 16  1  0
  9 10  1  0
  6  7  1  0
 11 13  1  0
M  END
>  <ID>  (1499) 


>  <MOLENAME>  (1499) 
KHELLIN

>  <therap>  (1499) 
vasodilator (coronary), photosensitizer

>  <ref>  (1499) 
Ber 71:106 (1938); Arzneim Forsch 11:915 (1961); J Am Acad Dermatol 18:693 (1988)

>  <cas#>  (1499) 
82-02-0

>  <source>  (1499) 
Amni visnaga Lam., Umbelliferae

>  <status>  (1499) 
INN

>  <tradename>  (1499) 
AMIVIN

>  <SMILES>  (1499) 
COc1c2oc(C)cc(=O)c2c(OC)c2c1occ2

>  <standardized_failed>  (1499) 
False

$$$$

     RDKit          2D

 20 21  0  0  0  0  0  0  0  0999 V2000
    5.7750   -5.7542    0.0000 S   0  0  0  0  0  0  0  0  0  0  0  0
    5.7667   -4.1000    0.0000 N   0  0  0  0  0  0  0  0  0  0  0  0
    5.0583   -5.3417    0.0000 C   0  0  0  0  0  0  0  0  0  0  0  0
    6.4875   -5.3375    0.0000 C   0  0  0  0  0  0  0  0  0  0  0  0
    5.0583   -4.5167    0.0000 C   0  0  0  0  0  0  0  0  0  0  0  0
    4.3417   -5.7583    0.0000 C   0  0  0  0  0  0  0  0  0  0  0  0
    7.2042   -5.7458    0.0000 C   0  0  0  0  0  0  0  0  0  0  0  0
    6.4833   -4.5083    0.0000 C   0  0  0  0  0  0  0  0  0  0  0  0
    7.9208   -5.3292    0.0000 C   0  0  0  0  0  0  0  0  0  0  0  0
    3.6292   -5.3458    0.0000 C   0  0  0  0  0  0  0  0  0  0  0  0
    4.3417   -4.1042    0.0000 C   0  0  0  0  0  0  0  0  0  0  0  0
    3.6292   -4.5167    0.0000 C   0  0  0  0  0  0  0  0  0  0  0  0
    8.6417   -5.7375    0.0000 N   0  0  0  0  0  0  0  0  0  0  0  0
    7.9125   -4.4958    0.0000 C   0  0  0  0  0  0  0  0  0  0  0  0
    6.1542   -6.9167    0.0000 Cl  0  0  0  0  0  0  0  0  0  0  0  0
    7.1958   -4.0917    0.0000 C   0  0  0  0  0  0  0  0  0  0  0  0
    2.9125   -5.7583    0.0000 N   0  0  0  0  0  0  0  0  0  0  0  0
    2.9167   -4.1083    0.0000 C   0  0  0  0  0  0  0  0  0  0  0  0
    9.3500   -5.3167    0.0000 C   0  0  0  0  0  0  0  0  0  0  0  0
    8.6458   -6.5625    0.0000 C   0  0  0  0  0  0  0  0  0  0  0  0
  2  8  1  0
  3  1  2  0
  4  1  1  0
  5  3  1  0
  6  3  1  0
  7  4  2  0
  8  4  1  0
  9  7  1  0
 10  6  2  0
 11  5  1  0
 12 10  1  0
 13  9  1  0
 14  9  2  0
 16  8  2  0
 17 10  1  0
 18 12  1  0
 19 13  1  0
 20 13  1  0
  5  2  2  0
 16 14  1  0
 12 11  2  0
M  CHG  2   1   1  15  -1
M  END
>  <ID>  (1500) 


>  <MOLENAME>  (1500) 
TOLONIUM CHLORIDE

>  <therap>  (1500) 
hemostatic

>  <ref>  (1500) 
Surg Gynecol Obstet 89:692 (1949); Stanford Med Bull 9:96 (1951); J Am Dent Assoc 106:319 {1983)

>  <cas#>  (1500) 
92-31-9

>  <source>  (1500) 
synthetic; 

>  <status>  (1500) 
INN

>  <tradename>  (1500) 
TOLAZUL

>  <SMILES>  (1500) 
Cc1cc2nc3ccc(N(C)C)cc3[s+]c2cc1N

>  <standardized_failed>  (1500) 
False

$$$$

     RDKit          2D

 12 14  0  0  0  0  0  0  0  0999 V2000
    7.0792   -1.6542    0.0000 C   0  0  0  0  0  0  0  0  0  0  0  0
    4.7375   -0.9375    0.0000 C   0  0  0  0  0  0  0  0  0  0  0  0
    6.2958   -1.3083    0.0000 C   0  0  0  0  0  0  0  0  0  0  0  0
    8.3583   -1.1542    0.0000 C   0  0  0  0  0  0  0  0  0  0  0  0
    5.2375   -1.5292    0.0000 C   0  0  0  0  0  0  0  0  0  0  0  0
    6.6708   -0.5000    0.0000 C   0  0  0  0  0  0  0  0  0  0  0  0
    6.5167   -3.0583    0.0000 C   0  0  0  0  0  0  0  0  0  0  0  0
    5.4583   -2.2333    0.0000 C   0  0  0  0  0  0  0  0  0  0  0  0
    8.3250   -2.7792    0.0000 C   0  0  0  0  0  0  0  0  0  0  0  0
    4.7667   -2.8708    0.0000 C   0  0  0  0  0  0  0  0  0  0  0  0
    7.1417   -2.1542    0.0000 O   0  0  0  0  0  0  0  0  0  0  0  0
    3.8000   -0.3750    0.0000 O   0  0  0  0  0  0  0  0  0  0  0  0
  2  5  1  0
  3  1  1  0
  4  1  1  0
  5  3  1  0
  6  4  1  0
  7  8  1  0
  8  3  1  0
  9  4  1  0
 10  2  1  0
 11  1  2  0
 12  2  1  0
  9  7  1  0
  6  2  1  0
  7 10  1  0
M  END
>  <ID>  (1501) 


>  <MOLENAME>  (1501) 
IDRAMANTONE

>  <therap>  (1501) 
anthelmintic

>  <ref>  (1501) 
Pharm. Chem. J. (Transl. Khim.-Farm. Zh.) (2004), 38(3), 117-119; Dokl. Biochem. Biophys. (2003), 391, 201-203.

>  <cas#>  (1501) 
20098-14-0

>  <source>  (1501) 
synthetic

>  <status>  (1501) 
INN

>  <tradename>  (1501) 
nan

>  <SMILES>  (1501) 
O=C1C2CC3CC1CC(O)(C3)C2

>  <standardized_failed>  (1501) 
False

$$$$

     RDKit          2D

  7  6  0  0  0  0  0  0  0  0999 V2000
    1.5042   -1.0792    0.0000 S   0  0  0  0  0  0  0  0  0  0  0  0
   -0.6333   -0.6750    0.0000 O   0  0  0  0  0  0  0  0  0  0  0  0
    3.6417   -0.6625    0.0000 O   0  0  0  0  0  0  0  0  0  0  0  0
    2.2167   -0.6667    0.0000 C   0  0  0  0  0  0  0  0  0  0  0  0
    0.7917   -0.6667    0.0000 C   0  0  0  0  0  0  0  0  0  0  0  0
    2.9292   -1.0750    0.0000 C   0  0  0  0  0  0  0  0  0  0  0  0
    0.0792   -1.0792    0.0000 C   0  0  0  0  0  0  0  0  0  0  0  0
  2  7  1  0
  3  6  1  0
  4  1  1  0
  5  1  1  0
  6  4  1  0
  7  5  1  0
M  END
>  <ID>  (1502) 


>  <MOLENAME>  (1502) 
THIODIGLYCOL

>  <therap>  (1502) 
antineoplastic, alkylating agent

>  <ref>  (1502) 
Biochem Pharmacol 12:1329 (1963); Xenobiotica 23:473 (1993)

>  <cas#>  (1502) 
111-48-8

>  <source>  (1502) 
synthetic

>  <status>  (1502) 
INN

>  <tradename>  (1502) 
nan

>  <SMILES>  (1502) 
OCCSCCO

>  <standardized_failed>  (1502) 
False

$$$$

     RDKit          2D

 21 20  0  0  0  0  0  0  0  0999 V2000
    8.5917   -1.4292    0.0000 C   0  0  0  0  0  0  0  0  0  0  0  0
    8.5875   -0.6042    0.0000 O   0  0  0  0  0  0  0  0  0  0  0  0
    9.3042   -1.8375    0.0000 N   0  0  0  0  0  0  0  0  0  0  0  0
    8.5875   -3.8917    0.0000 O   0  0  0  0  0  0  0  0  0  0  0  0
    7.8792   -1.8417    0.0000 C   0  0  0  0  0  0  0  0  0  0  0  0
    9.3042   -2.6542    0.0000 C   0  0  0  0  0  0  0  0  0  0  0  0
    8.5917   -3.0667    0.0000 C   0  0  0  0  0  0  0  0  0  0  0  0
    7.1667   -1.4292    0.0000 C   0  0  0  0  0  0  0  0  0  0  0  0
   -1.3833   -1.4292    0.0000 C   0  0  0  0  0  0  0  0  0  0  0  0
   -0.6708   -1.8417    0.0000 C   0  0  0  0  0  0  0  0  0  0  0  0
    5.7417   -1.4292    0.0000 C   0  0  0  0  0  0  0  0  0  0  0  0
    6.4542   -1.8417    0.0000 C   0  0  0  0  0  0  0  0  0  0  0  0
    0.0417   -1.4292    0.0000 C   0  0  0  0  0  0  0  0  0  0  0  0
    0.7542   -1.8417    0.0000 C   0  0  0  0  0  0  0  0  0  0  0  0
    1.4667   -1.4292    0.0000 C   0  0  0  0  0  0  0  0  0  0  0  0
    2.1792   -1.8417    0.0000 C   0  0  0  0  0  0  0  0  0  0  0  0
    2.8917   -1.4292    0.0000 C   0  0  0  0  0  0  0  0  0  0  0  0
    3.6042   -1.8417    0.0000 C   0  0  0  0  0  0  0  0  0  0  0  0
    4.3167   -1.4292    0.0000 C   0  0  0  0  0  0  0  0  0  0  0  0
    5.0292   -1.8417    0.0000 C   0  0  0  0  0  0  0  0  0  0  0  0
   -2.0958   -1.8417    0.0000 C   0  0  0  0  0  0  0  0  0  0  0  0
  2  1  2  0
  3  1  1  0
  4  7  1  0
  5  1  1  0
  6  3  1  0
  7  6  1  0
  8  5  1  0
  9 10  1  0
 10 13  1  0
 11 12  1  0
 12  8  1  0
 13 14  1  0
 14 15  1  0
 15 16  1  0
 16 17  1  0
 17 18  1  0
 18 19  1  0
 19 20  1  0
 20 11  1  0
 21  9  1  0
M  END
>  <ID>  (1503) 


>  <MOLENAME>  (1503) 
PALMIDROL

>  <therap>  (1503) 
antiinflammatory

>  <ref>  (1503) 
Science 258:1946 (1992).

>  <cas#>  (1503) 
544-31-0

>  <source>  (1503) 
Glycine max

>  <status>  (1503) 
INN

>  <tradename>  (1503) 
nan

>  <SMILES>  (1503) 
CCCCCCCCCCCCCCCC(=O)NCCO

>  <standardized_failed>  (1503) 
False

$$$$

     RDKit          2D

 26 27  0  0  0  0  0  0  0  0999 V2000
    3.4708   -2.5667    0.0000 C   0  0  0  0  0  0  0  0  0  0  0  0
    4.1875   -1.3250    0.0000 C   0  0  0  0  0  0  0  0  0  0  0  0
    3.4708   -3.3917    0.0000 N   0  0  0  0  0  0  0  0  0  0  0  0
    9.0500   -0.6333    0.0000 C   0  0  0  0  0  0  0  0  0  0  0  0
    9.8708   -0.7167    0.0000 N   0  0  0  0  0  0  0  0  0  0  0  0
    2.0458   -0.9167    0.0000 N   0  0  0  0  0  0  0  0  0  0  0  0
    4.1875   -2.1542    0.0000 C   0  0  0  0  0  0  0  0  0  0  0  0
    2.7583   -2.1542    0.0000 C   0  0  0  0  0  0  0  0  0  0  0  0
    2.7583   -1.3250    0.0000 C   0  0  0  0  0  0  0  0  0  0  0  0
    3.4708   -0.9125    0.0000 C   0  0  0  0  0  0  0  0  0  0  0  0
    8.5000   -1.2458    0.0000 O   0  0  0  0  0  0  0  0  0  0  0  0
    4.9000   -0.9125    0.0000 C   0  0  0  0  0  0  0  0  0  0  0  0
    8.6375    0.0792    0.0000 C   0  0  0  0  0  0  0  0  0  0  0  0
    7.7500   -0.9125    0.0000 C   0  0  0  0  0  0  0  0  0  0  0  0
    6.3250   -0.9125    0.0000 N   0  0  0  0  0  0  0  0  0  0  0  0
    7.8333   -0.0917    0.0000 C   0  0  0  0  0  0  0  0  0  0  0  0
    2.7583   -3.8083    0.0000 O   0  0  0  0  0  0  0  0  0  0  0  0
   10.2125   -1.4667    0.0000 O   0  0  0  0  0  0  0  0  0  0  0  0
    2.0458   -0.0875    0.0000 O   0  0  0  0  0  0  0  0  0  0  0  0
    4.1875   -3.8083    0.0000 O   0  0  0  0  0  0  0  0  0  0  0  0
   10.3583   -0.0458    0.0000 O   0  0  0  0  0  0  0  0  0  0  0  0
    1.3333   -1.3250    0.0000 O   0  0  0  0  0  0  0  0  0  0  0  0
    7.0375   -1.3250    0.0000 C   0  0  0  0  0  0  0  0  0  0  0  0
    5.6125   -1.3250    0.0000 N   0  0  0  0  0  0  0  0  0  0  0  0
    4.8958   -0.0875    0.0000 O   0  0  0  0  0  0  0  0  0  0  0  0
    4.9042   -2.5667    0.0000 O   0  0  0  0  0  0  0  0  0  0  0  0
  2  7  1  0
  3  1  1  0
  4 11  1  0
  5  4  1  0
  6  9  1  0
  7  1  2  0
  8  1  1  0
  9  8  2  0
 10  9  1  0
 11 14  1  0
 12  2  1  0
 13 16  1  0
 14 23  1  0
 15 24  1  0
 16 14  2  0
 17  3  1  0
 18  5  1  0
 19  6  1  0
 20  3  2  0
 21  5  2  0
 22  6  2  0
 23 15  2  0
 24 12  1  0
 25 12  2  0
 26  7  1  0
 10  2  2  0
 13  4  2  0
M  CHG  6   3   1   5   1   6   1  17  -1  18  -1  19  -1
M  END
>  <ID>  (1504) 


>  <MOLENAME>  (1504) 
NIFURSOL

>  <therap>  (1504) 
antiprotozoal

>  <ref>  (1504) 
J AOAC 58:694 (1975); Anal Chem 318:522 (1984); Anal ChimiActa 529:339- (2005)

>  <cas#>  (1504) 
16915-70-1

>  <source>  (1504) 
synthetic

>  <status>  (1504) 
USAN, INN, BAN

>  <tradename>  (1504) 
nan

>  <SMILES>  (1504) 
O=C(N/N=C/c1ccc([N+](=O)[O-])o1)c1cc([N+](=O)[O-])cc([N+](=O)[O-])c1O

>  <standardized_failed>  (1504) 
False

$$$$

     RDKit          2D

 45 52  0  0  0  0  0  0  0  0999 V2000
    2.8792   -1.3750    0.0000 C   0  0  0  0  0  0  0  0  0  0  0  0
    2.1667   -1.7792    0.0000 C   0  0  0  0  0  0  0  0  0  0  0  0
    3.5917   -1.7917    0.0000 O   0  0  0  0  0  0  0  0  0  0  0  0
    2.1667   -2.6042    0.0000 C   0  0  0  0  0  0  0  0  0  0  0  0
    2.8792   -0.5542    0.0000 C   0  0  0  0  0  0  0  0  0  0  0  0
    6.0375   -1.7917    0.0000 C   0  0  0  0  0  0  0  0  0  0  0  0
    1.4542   -1.3667    0.0000 C   0  0  0  0  0  0  0  0  0  0  0  0
    6.7500   -2.2042    0.0000 C   0  0  0  0  0  0  0  0  0  0  0  0
    4.6167   -1.7792    0.0000 C   0  0  0  0  0  0  0  0  0  0  0  0
    1.4542   -3.0167    0.0000 N   0  0  0  0  0  0  0  0  0  0  0  0
    2.1667   -0.1375    0.0000 C   0  0  0  0  0  0  0  0  0  0  0  0
    7.4667   -1.8000    0.0000 N   0  0  0  0  0  0  0  0  0  0  0  0
    5.3250   -2.2042    0.0000 C   0  0  0  0  0  0  0  0  0  0  0  0
    6.0417   -0.9667    0.0000 C   0  0  0  0  0  0  0  0  0  0  0  0
    5.3750   -4.7375    0.0000 C   0  0  0  0  0  0  0  0  0  0  0  0
    4.6167   -5.1417    0.0000 O   0  0  0  0  0  0  0  0  0  0  0  0
    1.4542   -0.5417    0.0000 C   0  0  0  0  0  0  0  0  0  0  0  0
    4.6125   -0.9625    0.0000 C   0  0  0  0  0  0  0  0  0  0  0  0
    5.3250   -0.5542    0.0000 C   0  0  0  0  0  0  0  0  0  0  0  0
    3.4917   -0.0042    0.0000 O   0  0  0  0  0  0  0  0  0  0  0  0
    2.3417    0.6708    0.0000 O   0  0  0  0  0  0  0  0  0  0  0  0
    3.1417   -2.4667    0.0000 C   0  0  0  0  0  0  0  0  0  0  0  0
    6.1667   -2.8750    0.0000 C   0  0  0  0  0  0  0  0  0  0  0  0
    5.3792   -3.8417    0.0000 C   0  0  0  0  0  0  0  0  0  0  0  0
    6.1542   -5.1917    0.0000 C   0  0  0  0  0  0  0  0  0  0  0  0
    0.7417   -1.7792    0.0000 C   0  0  0  0  0  0  0  0  0  0  0  0
    3.1667    0.7458    0.0000 C   0  0  0  0  0  0  0  0  0  0  0  0
    0.7417   -2.6042    0.0000 C   0  0  0  0  0  0  0  0  0  0  0  0
    7.4667   -0.9750    0.0000 C   0  0  0  0  0  0  0  0  0  0  0  0
    6.1667   -3.4000    0.0000 C   0  0  0  0  0  0  0  0  0  0  0  0
    6.7542   -0.5542    0.0000 C   0  0  0  0  0  0  0  0  0  0  0  0
    4.2042   -4.4250    0.0000 C   0  0  0  0  0  0  0  0  0  0  0  0
    6.9375   -4.7417    0.0000 C   0  0  0  0  0  0  0  0  0  0  0  0
    3.3917   -2.9917    0.0000 C   0  0  0  0  0  0  0  0  0  0  0  0
    6.9375   -3.8417    0.0000 C   0  0  0  0  0  0  0  0  0  0  0  0
    4.0500   -0.6500    0.0000 O   0  0  0  0  0  0  0  0  0  0  0  0
    3.3792   -4.4167    0.0000 C   0  0  0  0  0  0  0  0  0  0  0  0
    4.6167   -3.7042    0.0000 C   0  0  0  0  0  0  0  0  0  0  0  0
    2.9792   -3.7042    0.0000 C   0  0  0  0  0  0  0  0  0  0  0  0
    4.2125   -2.9917    0.0000 C   0  0  0  0  0  0  0  0  0  0  0  0
    6.1500   -6.0917    0.0000 O   0  0  0  0  0  0  0  0  0  0  0  0
    1.4542   -3.8417    0.0000 C   0  0  0  0  0  0  0  0  0  0  0  0
    8.1792   -2.2167    0.0000 C   0  0  0  0  0  0  0  0  0  0  0  0
    4.0500    0.1750    0.0000 C   0  0  0  0  0  0  0  0  0  0  0  0
    5.3667   -6.5417    0.0000 C   0  0  0  0  0  0  0  0  0  0  0  0
  2  1  1  0
  3  1  1  0
  4  2  1  0
  5  1  2  0
  6 13  1  0
  7  2  2  0
  8  6  1  0
  9  3  1  0
  4 10  1  6
 11  5  1  0
  8 12  1  6
 13  9  2  0
 14 19  1  0
 15 24  1  0
 16 32  1  0
 17 11  2  0
 18  9  1  0
 19 18  2  0
 20  5  1  0
 21 11  1  0
  4 22  1  0
  8 23  1  0
 24 30  2  0
 25 33  1  0
 26  7  1  0
 27 20  1  0
 28 26  1  0
 29 31  1  0
 30 23  1  0
 31 14  1  0
 32 38  2  0
 33 35  2  0
 34 22  1  0
 35 30  1  0
 36 18  1  0
 37 39  2  0
 38 40  1  0
 39 34  1  0
 40 34  2  0
 41 25  1  0
 42 10  1  0
 43 12  1  0
 44 36  1  0
 45 41  1  0
 21 27  1  0
  7 17  1  0
 10 28  1  0
  6 14  2  0
 32 37  1  0
 29 12  1  0
 16 15  1  0
 25 15  2  0
M  END
>  <ID>  (1505) 


>  <MOLENAME>  (1505) 
CEPHARANTHINE

>  <therap>  (1505) 
antineoplastic, hepatoprotectant, radiopropective

>  <ref>  (1505) 
Biochem Pharmacol 46:1887 (1993); Antimicrob Agents Chemother 43:492 (1999)

>  <cas#>  (1505) 
481-49-2

>  <source>  (1505) 
Stephania spp

>  <status>  (1505) 
JAN

>  <tradename>  (1505) 
nan

>  <SMILES>  (1505) 
COc1c2cc(cc1)C[C@@H]1c3c(cc(OC)c(c3)Oc3c4OCOc4cc4c3[C@H](Cc3ccc(cc3)O2)N(C)CC4)CCN1C

>  <standardized_failed>  (1505) 
False

$$$$

     RDKit          2D

 26 28  0  0  0  0  0  0  0  0999 V2000
    7.2917   -1.6792    0.0000 C   0  0  0  0  0  0  0  0  0  0  0  0
    6.5833   -2.0917    0.0000 N   0  0  0  0  0  0  0  0  0  0  0  0
    8.0083   -2.0833    0.0000 N   0  0  0  0  0  0  0  0  0  0  0  0
    6.5875   -2.9208    0.0000 N   0  0  0  0  0  0  0  0  0  0  0  0
    5.8708   -1.6833    0.0000 C   0  0  0  0  0  0  0  0  0  0  0  0
    4.4417   -0.8667    0.0000 C   0  0  0  0  0  0  0  0  0  0  0  0
    4.4417   -1.6917    0.0000 C   0  0  0  0  0  0  0  0  0  0  0  0
    5.1458   -0.4500    0.0000 C   0  0  0  0  0  0  0  0  0  0  0  0
    7.3042   -3.3292    0.0000 C   0  0  0  0  0  0  0  0  0  0  0  0
    8.0167   -2.9125    0.0000 C   0  0  0  0  0  0  0  0  0  0  0  0
    5.8625   -0.8542    0.0000 C   0  0  0  0  0  0  0  0  0  0  0  0
    5.1542   -2.1000    0.0000 C   0  0  0  0  0  0  0  0  0  0  0  0
    3.7250   -0.4583    0.0000 C   0  0  0  0  0  0  0  0  0  0  0  0
    3.7167    1.1958    0.0000 N   0  0  0  0  0  0  0  0  0  0  0  0
    3.7208    0.3667    0.0000 C   0  0  0  0  0  0  0  0  0  0  0  0
    7.2875   -0.8542    0.0000 O   0  0  0  0  0  0  0  0  0  0  0  0
    3.0125   -0.8750    0.0000 C   0  0  0  0  0  0  0  0  0  0  0  0
    8.7333   -3.3208    0.0000 O   0  0  0  0  0  0  0  0  0  0  0  0
    3.7250   -2.1042    0.0000 Cl  0  0  0  0  0  0  0  0  0  0  0  0
    5.1417    0.3750    0.0000 Cl  0  0  0  0  0  0  0  0  0  0  0  0
    2.2958   -0.4625    0.0000 C   0  0  0  0  0  0  0  0  0  0  0  0
    3.0125   -1.7042    0.0000 C   0  0  0  0  0  0  0  0  0  0  0  0
    1.5833   -1.7042    0.0000 C   0  0  0  0  0  0  0  0  0  0  0  0
    1.5833   -0.8750    0.0000 C   0  0  0  0  0  0  0  0  0  0  0  0
    2.2958   -2.1167    0.0000 C   0  0  0  0  0  0  0  0  0  0  0  0
    0.8667   -2.1167    0.0000 Cl  0  0  0  0  0  0  0  0  0  0  0  0
  2  1  1  0
  3  1  1  0
  4  2  1  0
  5  2  1  0
  6  8  2  0
  7 12  2  0
  8 11  1  0
  9  4  2  0
 10  3  1  0
 11  5  2  0
 12  5  1  0
 13  6  1  0
 14 15  3  0
 15 13  1  0
 16  1  2  0
 17 13  1  0
 18 10  2  0
 19  7  1  0
 20  8  1  0
 21 17  2  0
 22 17  1  0
 23 24  2  0
 24 21  1  0
 25 22  2  0
 26 23  1  0
 10  9  1  0
  7  6  1  0
 25 23  1  0
M  END
>  <ID>  (1506) 


>  <MOLENAME>  (1506) 
DICLAZURIL

>  <therap>  (1506) 
coccidiostat

>  <ref>  (1506) 
J Parasitology 74:931 (1988); Lancet 1:1397 (1989)

>  <cas#>  (1506) 
101831-37-2

>  <source>  (1506) 
synthetic; R-64433

>  <status>  (1506) 
USAN, INN, BAN

>  <tradename>  (1506) 
CLINACOX

>  <SMILES>  (1506) 
N#CC(c1ccc(Cl)cc1)c1c(Cl)cc(-n2ncc(=O)[nH]c2=O)cc1Cl

>  <standardized_failed>  (1506) 
False

$$$$

     RDKit          2D

 19 19  0  0  0  0  0  0  0  0999 V2000
    3.4250   -2.1542    0.0000 C   0  0  0  0  0  0  0  0  0  0  0  0
    3.1750   -1.3667    0.0000 C   0  0  0  0  0  0  0  0  0  0  0  0
    4.5042   -1.3667    0.0000 N   0  0  0  0  0  0  0  0  0  0  0  0
    3.8375   -0.8792    0.0000 N   0  0  0  0  0  0  0  0  0  0  0  0
    4.2500   -2.1542    0.0000 C   0  0  0  0  0  0  0  0  0  0  0  0
    2.9417   -2.8167    0.0000 N   0  0  0  0  0  0  0  0  0  0  0  0
    2.3917   -1.1125    0.0000 O   0  0  0  0  0  0  0  0  0  0  0  0
    3.8375   -0.0542    0.0000 C   0  0  0  0  0  0  0  0  0  0  0  0
    5.2917   -1.1125    0.0000 C   0  0  0  0  0  0  0  0  0  0  0  0
    4.7375   -2.8167    0.0000 C   0  0  0  0  0  0  0  0  0  0  0  0
    6.4792   -1.6167    0.0000 Cl  0  0  0  0  0  0  0  0  0  0  0  0
    2.1167   -2.7292    0.0000 C   0  0  0  0  0  0  0  0  0  0  0  0
    4.5542    0.3583    0.0000 C   0  0  0  0  0  0  0  0  0  0  0  0
    3.1250    0.3583    0.0000 C   0  0  0  0  0  0  0  0  0  0  0  0
    1.6292   -3.4000    0.0000 C   0  0  0  0  0  0  0  0  0  0  0  0
    1.7875   -1.9792    0.0000 C   0  0  0  0  0  0  0  0  0  0  0  0
    3.1167    1.1750    0.0000 C   0  0  0  0  0  0  0  0  0  0  0  0
    4.5542    1.1833    0.0000 C   0  0  0  0  0  0  0  0  0  0  0  0
    3.8375    1.5958    0.0000 C   0  0  0  0  0  0  0  0  0  0  0  0
  2  1  1  0
  3  5  1  0
  4  2  1  0
  5  1  2  0
  6  1  1  0
  7  2  2  0
  8  4  1  0
  9  3  1  0
 10  5  1  0
 12  6  1  0
 13  8  2  0
 14  8  1  0
 15 12  1  0
 16 12  1  0
 17 14  2  0
 18 13  1  0
 19 18  2  0
  3  4  1  0
 17 19  1  0
M  END
>  <ID>  (1507) 


>  <MOLENAME>  (1507) 
RAMIFENAZONE

>  <therap>  (1507) 
analgesic, antipyretic, antiinflammatory

>  <ref>  (1507) 
Arzneim Forsch 20:1024 (1970); S Afr Med J 58:444 (1980)

>  <cas#>  (1507) 
3615-24-5

>  <source>  (1507) 
synthetic

>  <status>  (1507) 
INN

>  <tradename>  (1507) 
TOMANOL

>  <SMILES>  (1507) 
Cc1c(NC(C)C)c(=O)n(-c2ccccc2)n1C

>  <standardized_failed>  (1507) 
False

$$$$

     RDKit          2D

 24 27  0  0  0  0  0  0  0  0999 V2000
    6.8875   -3.1250    0.0000 C   0  0  0  0  0  0  0  0  0  0  0  0
    4.7375   -4.3417    0.0000 C   0  0  0  0  0  0  0  0  0  0  0  0
    7.6667   -2.8875    0.0000 C   0  0  0  0  0  0  0  0  0  0  0  0
    4.7292   -5.1667    0.0000 C   0  0  0  0  0  0  0  0  0  0  0  0
    6.8750   -3.9500    0.0000 C   0  0  0  0  0  0  0  0  0  0  0  0
    5.4500   -3.9292    0.0000 C   0  0  0  0  0  0  0  0  0  0  0  0
    6.1542   -4.3542    0.0000 C   0  0  0  0  0  0  0  0  0  0  0  0
    4.0250   -5.5792    0.0000 C   0  0  0  0  0  0  0  0  0  0  0  0
    6.1792   -2.7042    0.0000 C   0  0  0  0  0  0  0  0  0  0  0  0
    8.1417   -3.5542    0.0000 C   0  0  0  0  0  0  0  0  0  0  0  0
    5.4542   -3.1042    0.0000 C   0  0  0  0  0  0  0  0  0  0  0  0
    7.6500   -4.2167    0.0000 C   0  0  0  0  0  0  0  0  0  0  0  0
    4.0250   -3.9292    0.0000 C   0  0  0  0  0  0  0  0  0  0  0  0
    6.1625   -5.1750    0.0000 C   0  0  0  0  0  0  0  0  0  0  0  0
    8.0792   -2.1667    0.0000 C   0  0  0  0  0  0  0  0  0  0  0  0
    5.4417   -5.5792    0.0000 C   0  0  0  0  0  0  0  0  0  0  0  0
    3.3167   -5.1667    0.0000 C   0  0  0  0  0  0  0  0  0  0  0  0
    7.6625   -1.4542    0.0000 O   0  0  0  0  0  0  0  0  0  0  0  0
    2.6000   -5.5792    0.0000 O   0  0  0  0  0  0  0  0  0  0  0  0
    8.4917   -2.8875    0.0000 O   0  0  0  0  0  0  0  0  0  0  0  0
    3.3167   -4.3417    0.0000 C   0  0  0  0  0  0  0  0  0  0  0  0
    6.8792   -2.3000    0.0000 C   0  0  0  0  0  0  0  0  0  0  0  0
    4.7375   -3.5292    0.0000 C   0  0  0  0  0  0  0  0  0  0  0  0
    8.9000   -2.1625    0.0000 C   0  0  0  0  0  0  0  0  0  0  0  0
  2  6  1  0
  3  1  1  0
  4  2  1  0
  5  1  1  0
  6 11  1  0
  7  5  1  0
  8  4  2  0
  9  1  1  0
 10  3  1  0
 11  9  1  0
 12  5  1  0
 13  2  1  0
 14  7  1  0
  3 15  1  0
 16 14  1  0
 17 21  1  0
 18 15  2  0
 19 17  2  0
  3 20  1  6
 21 13  1  0
  1 22  1  1
  2 23  1  1
 24 15  1  0
 10 12  1  0
  6  7  1  0
 16  4  1  0
 17  8  1  0
M  END
>  <ID>  (1508) 


>  <MOLENAME>  (1508) 
HYDROXYPROGESTERONE

>  <therap>  (1508) 
progestin

>  <ref>  (1508) 
Eur. J. Contracept. Reprod. Health Care (2004), 9(3), 182-193; Obstet. Gynecol. (2005), 105(5 Pt 1), 1128-35; Ann. N. Y. Acad. Sci. (1958), 71, 560-71

>  <cas#>  (1508) 
3168-01-2

>  <source>  (1508) 
urine and blood

>  <status>  (1508) 
INN, BAN

>  <tradename>  (1508) 
nan

>  <SMILES>  (1508) 
CC(=O)[C@@]1(O)CCC2C3CCC4=CC(=O)CC[C@]4(C)C3CC[C@@]21C

>  <standardized_failed>  (1508) 
False

$$$$

     RDKit          2D

 22 25  0  0  0  0  0  0  0  0999 V2000
    6.1542   -3.5375    0.0000 C   0  0  0  0  0  0  0  0  0  0  0  0
    5.3292   -3.5375    0.0000 C   0  0  0  0  0  0  0  0  0  0  0  0
    6.5667   -2.8250    0.0000 C   0  0  0  0  0  0  0  0  0  0  0  0
    4.9292   -4.2500    0.0000 C   0  0  0  0  0  0  0  0  0  0  0  0
    6.5667   -4.2500    0.0000 C   0  0  0  0  0  0  0  0  0  0  0  0
    4.9292   -2.8250    0.0000 C   0  0  0  0  0  0  0  0  0  0  0  0
    6.1542   -2.1125    0.0000 O   0  0  0  0  0  0  0  0  0  0  0  0
    5.3292   -4.9625    0.0000 O   0  0  0  0  0  0  0  0  0  0  0  0
    6.1542   -4.9625    0.0000 C   0  0  0  0  0  0  0  0  0  0  0  0
    5.3292   -2.1125    0.0000 C   0  0  0  0  0  0  0  0  0  0  0  0
    7.3917   -2.8167    0.0000 C   0  0  0  0  0  0  0  0  0  0  0  0
    4.1042   -4.2500    0.0000 C   0  0  0  0  0  0  0  0  0  0  0  0
    4.1042   -2.8250    0.0000 C   0  0  0  0  0  0  0  0  0  0  0  0
    7.3917   -4.2500    0.0000 C   0  0  0  0  0  0  0  0  0  0  0  0
    7.8042   -3.5375    0.0000 C   0  0  0  0  0  0  0  0  0  0  0  0
    3.6917   -3.5375    0.0000 C   0  0  0  0  0  0  0  0  0  0  0  0
    4.9167   -1.3917    0.0000 O   0  0  0  0  0  0  0  0  0  0  0  0
    6.5542   -5.6750    0.0000 O   0  0  0  0  0  0  0  0  0  0  0  0
    7.8042   -2.1000    0.0000 O   0  0  0  0  0  0  0  0  0  0  0  0
    3.6917   -4.9625    0.0000 O   0  0  0  0  0  0  0  0  0  0  0  0
    8.6292   -3.5375    0.0000 O   0  0  0  0  0  0  0  0  0  0  0  0
    2.8667   -3.5375    0.0000 O   0  0  0  0  0  0  0  0  0  0  0  0
  2  1  1  0
  3  1  2  0
  4  2  1  0
  5  1  1  0
  6  2  2  0
  7  3  1  0
  8  9  1  0
  9  5  1  0
 10  7  1  0
 11  3  1  0
 12  4  2  0
 13  6  1  0
 14  5  2  0
 15 14  1  0
 16 13  2  0
 17 10  2  0
 18  9  2  0
 19 11  1  0
 20 12  1  0
 21 15  1  0
 22 16  1  0
 11 15  2  0
  4  8  1  0
  6 10  1  0
 12 16  1  0
M  END
>  <ID>  (1509) 


>  <MOLENAME>  (1509) 
ELLAGIC ACID

>  <therap>  (1509) 
hemostatic, antineoplastic, antimutagenic

>  <ref>  (1509) 
Mol. Aspects Med. (2010), 31(6), 513-539; J. Food Biochem. (2005), 29(3), 234-266; Cell. Mol. Targets Chemoprev. (1992), 147-60.

>  <cas#>  (1509) 
476-66-4

>  <source>  (1509) 
widely distributed in higher plants

>  <status>  (1509) 
INN

>  <tradename>  (1509) 
nan

>  <SMILES>  (1509) 
O=c1oc2c3c(cc(O)c2O)c(=O)oc2c(O)c(O)cc1c23

>  <standardized_failed>  (1509) 
False

$$$$

     RDKit          2D

 24 24  0  0  0  0  0  0  0  0999 V2000
    1.6667   -2.2667    0.0000 N   0  0  0  0  0  0  0  0  0  0  0  0
    1.6667   -0.9750    0.0000 N   0  0  0  0  0  0  0  0  0  0  0  0
    0.5417   -1.6167    0.0000 C   0  0  0  0  0  0  0  0  0  0  0  0
    2.0417   -1.6167    0.0000 C   0  0  0  0  0  0  0  0  0  0  0  0
    0.9167   -2.2667    0.0000 C   0  0  0  0  0  0  0  0  0  0  0  0
    0.9167   -0.9750    0.0000 C   0  0  0  0  0  0  0  0  0  0  0  0
    2.0500   -0.3167    0.0000 C   0  0  0  0  0  0  0  0  0  0  0  0
    2.0417   -2.9250    0.0000 C   0  0  0  0  0  0  0  0  0  0  0  0
   -0.0333   -1.1375    0.0000 N   0  0  0  0  0  0  0  0  0  0  0  0
   -0.0375   -2.1042    0.0000 C   0  0  0  0  0  0  0  0  0  0  0  0
    2.8042   -0.3250    0.0000 C   0  0  0  0  0  0  0  0  0  0  0  0
    1.6667   -3.5750    0.0000 C   0  0  0  0  0  0  0  0  0  0  0  0
    3.1792   -0.9667    0.0000 C   0  0  0  0  0  0  0  0  0  0  0  0
    0.9167   -3.5750    0.0000 C   0  0  0  0  0  0  0  0  0  0  0  0
    3.1792    0.3250    0.0000 C   0  0  0  0  0  0  0  0  0  0  0  0
    2.0417   -4.2167    0.0000 C   0  0  0  0  0  0  0  0  0  0  0  0
    4.3042    0.9708    0.0000 C   0  0  0  0  0  0  0  0  0  0  0  0
    2.0417   -5.5167    0.0000 C   0  0  0  0  0  0  0  0  0  0  0  0
    1.6667   -4.8667    0.0000 C   0  0  0  0  0  0  0  0  0  0  0  0
    3.9292    0.3250    0.0000 C   0  0  0  0  0  0  0  0  0  0  0  0
    0.5417   -2.9292    0.0000 C   0  0  0  0  0  0  0  0  0  0  0  0
    2.8042   -1.6167    0.0000 C   0  0  0  0  0  0  0  0  0  0  0  0
    5.0542    0.9708    0.0000 C   0  0  0  0  0  0  0  0  0  0  0  0
    1.6667   -6.1667    0.0000 C   0  0  0  0  0  0  0  0  0  0  0  0
  2  4  1  0
  3  5  1  0
  4  1  1  0
  5  1  1  0
  6  3  1  0
  7  2  1  0
  8  1  1  0
  9  3  1  0
 10  3  1  0
 11  7  1  0
 12  8  1  0
 13 11  1  0
 14 12  1  0
 15 11  1  0
 16 12  1  0
 17 20  1  0
 18 19  1  0
 19 16  1  0
 20 15  1  0
 21 14  1  0
 22 13  1  0
 23 17  1  0
 24 18  1  0
  6  2  1  0
M  END
>  <ID>  (1510) 


>  <MOLENAME>  (1510) 
HEXETIDINE

>  <therap>  (1510) 
antifungal

>  <ref>  (1510) 
Obst & Gynec 9:610 (1957); J Dent Res 62:135 (1983)

>  <cas#>  (1510) 
141-94-6

>  <source>  (1510) 
synthetic

>  <status>  (1510) 
BAN

>  <tradename>  (1510) 
STERISIL

>  <SMILES>  (1510) 
CCCCC(CC)CN1CN(CC(CC)CCCC)CC(C)(N)C1

>  <standardized_failed>  (1510) 
False

$$$$

     RDKit          2D

 11 11  0  0  0  0  0  0  0  0999 V2000
    5.8625   -3.2292    0.0000 C   0  0  0  0  0  0  0  0  0  0  0  0
    6.7542   -4.2125    0.0000 N   0  0  0  0  0  0  0  0  0  0  0  0
    6.6667   -3.3917    0.0000 C   0  0  0  0  0  0  0  0  0  0  0  0
    5.4542   -3.9417    0.0000 C   0  0  0  0  0  0  0  0  0  0  0  0
    6.0042   -4.5500    0.0000 O   0  0  0  0  0  0  0  0  0  0  0  0
    4.2125   -3.2292    0.0000 N   0  0  0  0  0  0  0  0  0  0  0  0
    7.2750   -2.8417    0.0000 O   0  0  0  0  0  0  0  0  0  0  0  0
    4.6292   -3.9417    0.0000 C   0  0  0  0  0  0  0  0  0  0  0  0
    5.4542   -2.5125    0.0000 C   0  0  0  0  0  0  0  0  0  0  0  0
    8.4500   -4.3042    0.0000 Cl  0  0  0  0  0  0  0  0  0  0  0  0
    4.6292   -2.5125    0.0000 C   0  0  0  0  0  0  0  0  0  0  0  0
  2  3  2  0
  3  1  1  0
  4  1  2  0
  5  4  1  0
  6 11  1  0
  7  3  1  0
  8  4  1  0
  9  1  1  0
 11  9  1  0
  8  6  1  0
  5  2  1  0
M  END
>  <ID>  (1511) 


>  <MOLENAME>  (1511) 
GABOXADOL HYDROCHLORIDE

>  <therap>  (1511) 
GABAa agonist, GABAc antagonist

>  <ref>  (1511) 
J Med Chem 24: 1377 (1981); 26: 895 (1983); Drugs of the Future 9: 597 (1984)

>  <cas#>  (1511) 
64603-91-4

>  <source>  (1511) 
synthetic; Lu-02-030, MK-0928, THIP hydrochloride

>  <status>  (1511) 
INN

>  <tradename>  (1511) 
nan

>  <SMILES>  (1511) 
Oc1noc2c1CCNC2

>  <standardized_failed>  (1511) 
False

$$$$

     RDKit          2D

 24 25  0  0  0  0  0  0  0  0999 V2000
    2.5792   -0.2917    0.0000 C   0  0  0  0  0  0  0  0  0  0  0  0
    1.8667   -2.3500    0.0000 C   0  0  0  0  0  0  0  0  0  0  0  0
    1.8667   -1.5250    0.0000 C   0  0  0  0  0  0  0  0  0  0  0  0
    4.0125   -0.2917    0.0000 C   0  0  0  0  0  0  0  0  0  0  0  0
    4.7250    0.1125    0.0000 C   0  0  0  0  0  0  0  0  0  0  0  0
    3.3000    0.1208    0.0000 C   0  0  0  0  0  0  0  0  0  0  0  0
    2.5792   -1.1167    0.0000 C   0  0  0  0  0  0  0  0  0  0  0  0
    5.4375   -0.3042    0.0000 C   0  0  0  0  0  0  0  0  0  0  0  0
    1.8667    0.1250    0.0000 C   0  0  0  0  0  0  0  0  0  0  0  0
    1.8667   -3.1750    0.0000 C   0  0  0  0  0  0  0  0  0  0  0  0
    1.1625   -1.1167    0.0000 C   0  0  0  0  0  0  0  0  0  0  0  0
    1.1417   -3.5792    0.0000 C   0  0  0  0  0  0  0  0  0  0  0  0
    4.0042   -1.1250    0.0000 C   0  0  0  0  0  0  0  0  0  0  0  0
    1.1625   -0.2917    0.0000 C   0  0  0  0  0  0  0  0  0  0  0  0
    5.4292   -1.1292    0.0000 C   0  0  0  0  0  0  0  0  0  0  0  0
    4.7292    0.9375    0.0000 Cl  0  0  0  0  0  0  0  0  0  0  0  0
    4.7167   -1.5375    0.0000 C   0  0  0  0  0  0  0  0  0  0  0  0
    6.1417   -1.5500    0.0000 Cl  0  0  0  0  0  0  0  0  0  0  0  0
    1.8667    0.9500    0.0000 O   0  0  0  0  0  0  0  0  0  0  0  0
    1.1542   -2.7625    0.0000 C   0  0  0  0  0  0  0  0  0  0  0  0
    2.5875   -2.7625    0.0000 C   0  0  0  0  0  0  0  0  0  0  0  0
    1.1375   -4.4042    0.0000 C   0  0  0  0  0  0  0  0  0  0  0  0
    0.4375   -3.1542    0.0000 C   0  0  0  0  0  0  0  0  0  0  0  0
    0.4292   -3.9875    0.0000 C   0  0  0  0  0  0  0  0  0  0  0  0
  2  3  1  0
  3  7  2  0
  4  6  1  0
  5  4  2  0
  6  1  1  0
  7  1  1  0
  8  5  1  0
  9  1  2  0
 10  2  1  0
 11 14  2  0
 12 10  1  0
 13  4  1  0
 14  9  1  0
 15 17  1  0
 16  5  1  0
 17 13  2  0
 18 15  1  0
 19  9  1  0
 20  2  1  0
 21  2  1  0
 22 12  1  0
 23 12  1  0
 24 12  1  0
  3 11  1  0
 15  8  2  0
M  END
>  <ID>  (1512) 


>  <MOLENAME>  (1512) 
CLOFOCTOL

>  <therap>  (1512) 
antibacterial

>  <ref>  (1512) 
Diagnostics 207:65 (1978); Int J Clin Pharmacol Res 5:175 (1985)

>  <cas#>  (1512) 
37693-01-9

>  <source>  (1512) 
synthetic

>  <status>  (1512) 
INN

>  <tradename>  (1512) 
OCTOPHENE

>  <SMILES>  (1512) 
CC(C)(C)CC(C)(C)c1cc(Cc2c(Cl)cc(Cl)cc2)c(O)cc1

>  <standardized_failed>  (1512) 
False

$$$$

     RDKit          2D

 24 27  0  0  0  0  0  0  0  0999 V2000
    7.5042   -5.0542    0.0000 N   0  0  0  0  0  0  0  0  0  0  0  0
    6.8625   -4.6625    0.0000 C   0  0  0  0  0  0  0  0  0  0  0  0
    6.1792   -5.7792    0.0000 C   0  0  0  0  0  0  0  0  0  0  0  0
    6.2000   -5.0250    0.0000 C   0  0  0  0  0  0  0  0  0  0  0  0
    5.5167   -6.1417    0.0000 C   0  0  0  0  0  0  0  0  0  0  0  0
    6.8750   -3.9042    0.0000 C   0  0  0  0  0  0  0  0  0  0  0  0
    8.1625   -4.6917    0.0000 C   0  0  0  0  0  0  0  0  0  0  0  0
    7.5375   -3.5417    0.0000 C   0  0  0  0  0  0  0  0  0  0  0  0
    8.1792   -3.9417    0.0000 C   0  0  0  0  0  0  0  0  0  0  0  0
    7.8042   -4.5750    0.0000 C   0  0  0  0  0  0  0  0  0  0  0  0
    5.5042   -6.8917    0.0000 C   0  0  0  0  0  0  0  0  0  0  0  0
    6.1417   -7.2792    0.0000 N   0  0  0  0  0  0  0  0  0  0  0  0
    4.8792   -5.7542    0.0000 C   0  0  0  0  0  0  0  0  0  0  0  0
    7.1542   -4.1917    0.0000 C   0  0  0  0  0  0  0  0  0  0  0  0
    4.8417   -7.2542    0.0000 C   0  0  0  0  0  0  0  0  0  0  0  0
    5.5542   -4.6292    0.0000 O   0  0  0  0  0  0  0  0  0  0  0  0
    4.2167   -6.1167    0.0000 C   0  0  0  0  0  0  0  0  0  0  0  0
    6.8042   -6.9167    0.0000 C   0  0  0  0  0  0  0  0  0  0  0  0
    4.2042   -6.8667    0.0000 C   0  0  0  0  0  0  0  0  0  0  0  0
    6.8167   -6.1667    0.0000 C   0  0  0  0  0  0  0  0  0  0  0  0
    3.5792   -5.7292    0.0000 O   0  0  0  0  0  0  0  0  0  0  0  0
    8.8500   -3.5792    0.0000 C   0  0  0  0  0  0  0  0  0  0  0  0
    2.8792   -5.7292    0.0000 C   0  0  0  0  0  0  0  0  0  0  0  0
    9.4917   -3.9750    0.0000 C   0  0  0  0  0  0  0  0  0  0  0  0
  2  1  1  0
  3  4  1  0
  4  2  1  0
  5  3  1  0
  2  6  1  1
  7  1  1  0
  8 14  1  0
  9  7  1  0
 10  1  1  0
 11  5  2  0
 12 18  2  0
 13  5  1  0
 14 10  1  0
 15 11  1  0
  4 16  1  6
 17 13  2  0
 18 20  1  0
 19 17  1  0
 20  3  2  0
 21 17  1  0
  9 22  1  1
 23 21  1  0
 24 22  1  0
  9  8  1  0
  8  6  1  0
 11 12  1  0
 19 15  2  0
M  END
>  <ID>  (1513) 


>  <MOLENAME>  (1513) 
HYDROQUINIDINE

>  <therap>  (1513) 
antiarrhythmic, antimalarial

>  <ref>  (1513) 
Arzneim. Forsch. (1977), 27(3), 589-93; Therapie (1971), 26(1), 97-107; Experientia (1971), 27(9), 1100-1.

>  <cas#>  (1513) 
1435-55-8

>  <source>  (1513) 
Cinchona bark

>  <status>  (1513) 
INN

>  <tradename>  (1513) 
nan

>  <SMILES>  (1513) 
CC[C@H]1CN2CCC1C[C@@H]2[C@@H](O)c1ccnc2c1cc(OC)cc2

>  <standardized_failed>  (1513) 
False

$$$$

     RDKit          2D

 31 32  0  0  0  0  0  0  0  0999 V2000
    5.2417   -5.8167    0.0000 C   0  0  0  0  0  0  0  0  0  0  0  0
    5.9167   -4.8542    0.0000 N   0  0  0  0  0  0  0  0  0  0  0  0
    5.1042   -5.0042    0.0000 C   0  0  0  0  0  0  0  0  0  0  0  0
    6.0542   -5.6667    0.0000 C   0  0  0  0  0  0  0  0  0  0  0  0
    9.3625   -3.8292    0.0000 C   0  0  0  0  0  0  0  0  0  0  0  0
    6.5417   -4.3292    0.0000 C   0  0  0  0  0  0  0  0  0  0  0  0
    9.3000   -3.0167    0.0000 N   0  0  0  0  0  0  0  0  0  0  0  0
   10.1542   -4.0292    0.0000 N   0  0  0  0  0  0  0  0  0  0  0  0
   10.5917   -3.3292    0.0000 N   0  0  0  0  0  0  0  0  0  0  0  0
   10.0667   -2.7042    0.0000 N   0  0  0  0  0  0  0  0  0  0  0  0
    6.8292   -5.9542    0.0000 S   0  0  0  0  0  0  0  0  0  0  0  0
    7.3167   -4.6167    0.0000 C   0  0  0  0  0  0  0  0  0  0  0  0
    4.7667   -6.4917    0.0000 N   0  0  0  0  0  0  0  0  0  0  0  0
    6.4042   -3.5167    0.0000 C   0  0  0  0  0  0  0  0  0  0  0  0
    8.7292   -4.3667    0.0000 S   0  0  0  0  0  0  0  0  0  0  0  0
    1.7542   -8.3792    0.0000 N   0  0  0  0  0  0  0  0  0  0  0  0
    7.4625   -5.4292    0.0000 C   0  0  0  0  0  0  0  0  0  0  0  0
    5.1167   -7.2417    0.0000 C   0  0  0  0  0  0  0  0  0  0  0  0
    4.4167   -4.5292    0.0000 O   0  0  0  0  0  0  0  0  0  0  0  0
    7.9542   -4.0792    0.0000 C   0  0  0  0  0  0  0  0  0  0  0  0
    2.5250   -8.4417    0.0000 C   0  0  0  0  0  0  0  0  0  0  0  0
    4.4417   -5.5917    0.0000 O   0  0  0  0  0  0  0  0  0  0  0  0
    7.0292   -2.9917    0.0000 O   0  0  0  0  0  0  0  0  0  0  0  0
    5.6292   -3.2417    0.0000 O   0  0  0  0  0  0  0  0  0  0  0  0
    5.9417   -7.3167    0.0000 O   0  0  0  0  0  0  0  0  0  0  0  0
    8.6000   -2.5792    0.0000 C   0  0  0  0  0  0  0  0  0  0  0  0
    3.8167   -7.8417    0.0000 S   0  0  0  0  0  0  0  0  0  0  0  0
    4.2375   -2.8417    0.0000 Na  0  0  0  0  0 15  0  0  0  0  0  0
    3.3417   -8.5167    0.0000 C   0  0  0  0  0  0  0  0  0  0  0  0
    4.6417   -7.9167    0.0000 C   0  0  0  0  0  0  0  0  0  0  0  0
    3.8542   -6.1792    0.0000 C   0  0  0  0  0  0  0  0  0  0  0  0
  2  4  1  0
  3  1  1  0
  4  1  1  0
  5 15  1  0
  6  2  1  0
  7  5  1  0
  8  5  2  0
  9  8  1  0
 10  7  1  0
 11  4  1  0
 12 17  1  0
  1 13  1  6
 14  6  1  0
 15 20  1  0
 16 21  3  0
 17 11  1  0
 18 13  1  0
 19  3  2  0
 20 12  1  0
 21 29  1  0
  1 22  1  0
 23 14  1  0
 24 14  2  0
 25 18  2  0
 26  7  1  0
 27 30  1  0
 29 27  1  0
 30 18  1  0
 31 22  1  0
  2  3  1  0
  6 12  2  0
  9 10  2  0
M  CHG  2  23  -1  28   1
M  END
>  <ID>  (1514) 


>  <MOLENAME>  (1514) 
CEFMETAZOLE SODIUM

>  <therap>  (1514) 
antibacterial

>  <ref>  (1514) 
Sankyo Kenkyusho Nempo 30:112 (1978); J Antiiot 32:1319 (1979)

>  <cas#>  (1514) 
56796-39-5

>  <source>  (1514) 
semisynthetic

>  <status>  (1514) 
USP, INN

>  <tradename>  (1514) 
ZEFAZONE

>  <SMILES>  (1514) 
CO[C@@]1(NC(=O)CSCC#N)C(=O)N2C(C(=O)O)=C(CSc3nnnn3C)CSC21

>  <standardized_failed>  (1514) 
False

$$$$

     RDKit          2D

 23 24  0  0  0  0  0  0  0  0999 V2000
    3.9875   -1.5542    0.0000 N   0  0  0  0  0  0  0  0  0  0  0  0
    3.2708   -1.1417    0.0000 C   0  0  0  0  0  0  0  0  0  0  0  0
    3.9875   -2.3792    0.0000 C   0  0  0  0  0  0  0  0  0  0  0  0
    6.1250   -2.7792    0.0000 C   0  0  0  0  0  0  0  0  0  0  0  0
    4.7000   -2.7875    0.0000 C   0  0  0  0  0  0  0  0  0  0  0  0
    8.2625   -2.3625    0.0000 C   0  0  0  0  0  0  0  0  0  0  0  0
    3.2708   -0.3125    0.0000 C   0  0  0  0  0  0  0  0  0  0  0  0
    2.5542   -1.5542    0.0000 C   0  0  0  0  0  0  0  0  0  0  0  0
    5.4125   -2.3667    0.0000 C   0  0  0  0  0  0  0  0  0  0  0  0
    6.1250   -3.6042    0.0000 O   0  0  0  0  0  0  0  0  0  0  0  0
    8.2583   -1.5375    0.0000 O   0  0  0  0  0  0  0  0  0  0  0  0
    6.8375   -2.3667    0.0000 O   0  0  0  0  0  0  0  0  0  0  0  0
    7.5500   -2.7750    0.0000 C   0  0  0  0  0  0  0  0  0  0  0  0
    2.5542   -2.3792    0.0000 Cl  0  0  0  0  0  0  0  0  0  0  0  0
    3.9833    0.1042    0.0000 Cl  0  0  0  0  0  0  0  0  0  0  0  0
    8.9750   -2.7708    0.0000 O   0  0  0  0  0  0  0  0  0  0  0  0
    1.8417   -0.3125    0.0000 C   0  0  0  0  0  0  0  0  0  0  0  0
    3.2750   -2.7917    0.0000 C   0  0  0  0  0  0  0  0  0  0  0  0
    1.8417   -1.1417    0.0000 C   0  0  0  0  0  0  0  0  0  0  0  0
    2.5542    0.1000    0.0000 C   0  0  0  0  0  0  0  0  0  0  0  0
    4.7083   -3.6083    0.0000 C   0  0  0  0  0  0  0  0  0  0  0  0
    3.2750   -3.6125    0.0000 C   0  0  0  0  0  0  0  0  0  0  0  0
    3.9917   -4.0250    0.0000 C   0  0  0  0  0  0  0  0  0  0  0  0
  2  1  1  0
  3  1  1  0
  4  9  1  0
  5  3  2  0
  6 13  1  0
  7  2  2  0
  8  2  1  0
  9  5  1  0
 10  4  2  0
 11  6  2  0
 12  4  1  0
 13 12  1  0
 14  8  1  0
 15  7  1  0
 16  6  1  0
 17 20  2  0
 18  3  1  0
 19  8  2  0
 20  7  1  0
 21  5  1  0
 22 18  2  0
 23 22  1  0
 19 17  1  0
 21 23  2  0
M  END
>  <ID>  (1515) 


>  <MOLENAME>  (1515) 
ACECLOFENAC

>  <therap>  (1515) 
antiinflammatory, analgesic

>  <ref>  (1515) 
Drugs Exp Clin Res 14:491 (1988); Clin Trials J 27:12 (1990)

>  <cas#>  (1515) 
89796-99-6

>  <source>  (1515) 
synthetic; PR-82/3

>  <status>  (1515) 
INN, BAN

>  <tradename>  (1515) 
AIRTAL

>  <SMILES>  (1515) 
O=C(O)COC(=O)Cc1c(Nc2c(Cl)cccc2Cl)cccc1

>  <standardized_failed>  (1515) 
False

$$$$

     RDKit          2D

 24 29  0  0  0  0  0  0  0  0999 V2000
    5.6125   -0.4250    0.0000 C   0  0  0  0  0  0  0  0  0  0  0  0
    6.9250   -1.5125    0.0000 N   0  0  0  0  0  0  0  0  0  0  0  0
    5.6125   -1.1750    0.0000 C   0  0  0  0  0  0  0  0  0  0  0  0
    4.9625   -1.5500    0.0000 N   0  0  0  0  0  0  0  0  0  0  0  0
    8.7917    0.1250    0.0000 C   0  0  0  0  0  0  0  0  0  0  0  0
    6.9292   -0.7875    0.0000 C   0  0  0  0  0  0  0  0  0  0  0  0
    6.2750   -1.8875    0.0000 C   0  0  0  0  0  0  0  0  0  0  0  0
    7.5792   -1.4292    0.0000 C   0  0  0  0  0  0  0  0  0  0  0  0
    5.9917    0.3083    0.0000 C   0  0  0  0  0  0  0  0  0  0  0  0
    9.0750   -2.3667    0.0000 C   0  0  0  0  0  0  0  0  0  0  0  0
    4.3125   -0.4250    0.0000 C   0  0  0  0  0  0  0  0  0  0  0  0
    4.3125   -1.1750    0.0000 C   0  0  0  0  0  0  0  0  0  0  0  0
    6.2042   -0.7875    0.0000 C   0  0  0  0  0  0  0  0  0  0  0  0
    8.4167   -1.6250    0.0000 C   0  0  0  0  0  0  0  0  0  0  0  0
    6.2917   -2.7417    0.0000 C   0  0  0  0  0  0  0  0  0  0  0  0
    8.3542   -0.7417    0.0000 O   0  0  0  0  0  0  0  0  0  0  0  0
    5.4542    1.1250    0.0000 O   0  0  0  0  0  0  0  0  0  0  0  0
    4.9625   -2.3000    0.0000 C   0  0  0  0  0  0  0  0  0  0  0  0
    3.6500   -0.0417    0.0000 C   0  0  0  0  0  0  0  0  0  0  0  0
    3.6500   -1.5500    0.0000 C   0  0  0  0  0  0  0  0  0  0  0  0
    7.7292   -2.1792    0.0000 C   0  0  0  0  0  0  0  0  0  0  0  0
    6.6042   -2.3042    0.0000 C   0  0  0  0  0  0  0  0  0  0  0  0
    3.0125   -0.4250    0.0000 C   0  0  0  0  0  0  0  0  0  0  0  0
    3.0125   -1.1750    0.0000 C   0  0  0  0  0  0  0  0  0  0  0  0
  2  6  1  0
  3  1  1  0
  3  4  1  6
  5  9  1  0
  6 13  1  1
  3  7  1  0
  8  2  1  0
  1  9  1  1
 10  5  1  0
 11  1  1  0
 12 11  2  0
  1 13  1  0
 14 10  1  0
 15  7  1  0
  8 16  1  6
 17  9  1  0
 18  4  1  0
 19 11  1  0
 20 12  1  0
 14 21  1  1
 22 21  1  0
 23 19  2  0
 24 23  1  0
  6  5  1  0
 12  4  1  0
  2  7  1  0
 10 15  1  0
 20 24  2  0
 14  8  1  0
M  END
>  <ID>  (1516) 


>  <MOLENAME>  (1516) 
AJMALINE

>  <therap>  (1516) 
antiarrhythmic (Class Ia): inhibits glucose uptake by mitochondria, & PAF blocker

>  <ref>  (1516) 
J Chem Soc 1954: 1242; Angew Chem., 68: 13 (1956)

>  <cas#>  (1516) 
4360-17-7

>  <source>  (1516) 
Rauwolfia spp., Melodinus balansae, Tonduzia longifolia

>  <status>  (1516) 
JAN

>  <tradename>  (1516) 
nan

>  <SMILES>  (1516) 
CC[C@H]1C2CC3[C@@H]4N(C)c5c(cccc5)[C@]45C[C@@H](C2C5O)N3[C@@H]1O

>  <standardized_failed>  (1516) 
False

$$$$

     RDKit          2D

 14 15  0  0  0  0  0  0  0  0999 V2000
    4.7667   -2.6167    0.0000 C   0  0  0  0  0  0  0  0  0  0  0  0
    5.1125   -3.2792    0.0000 C   0  0  0  0  0  0  0  0  0  0  0  0
    3.8625   -2.9292    0.0000 C   0  0  0  0  0  0  0  0  0  0  0  0
    5.8000   -2.8667    0.0000 C   0  0  0  0  0  0  0  0  0  0  0  0
    4.5500   -3.7167    0.0000 C   0  0  0  0  0  0  0  0  0  0  0  0
    6.7667   -1.8750    0.0000 C   0  0  0  0  0  0  0  0  0  0  0  0
    3.2667   -1.4042    0.0000 C   0  0  0  0  0  0  0  0  0  0  0  0
    5.0417   -2.0625    0.0000 C   0  0  0  0  0  0  0  0  0  0  0  0
    3.2042   -3.3042    0.0000 C   0  0  0  0  0  0  0  0  0  0  0  0
    5.2667   -0.8125    0.0000 C   0  0  0  0  0  0  0  0  0  0  0  0
    6.7042   -3.3417    0.0000 C   0  0  0  0  0  0  0  0  0  0  0  0
    5.5417   -1.5292    0.0000 N   0  0  0  0  0  0  0  0  0  0  0  0
    7.7125   -1.0042    0.0000 Cl  0  0  0  0  0  0  0  0  0  0  0  0
    4.2667   -1.4042    0.0000 C   0  0  0  0  0  0  0  0  0  0  0  0
  2  1  1  0
  3  1  1  0
  4  1  1  0
  5  2  1  0
  6  4  1  0
  7  3  1  0
  8  1  1  0
  9  7  1  0
 10  6  1  0
 11  6  1  0
 12  8  1  0
 14  8  1  0
 11  5  1  0
 10  7  1  0
  5  9  1  0
M  END
>  <ID>  (1517) 


>  <MOLENAME>  (1517) 
RIMANTADINE HYDROCHLORIDE

>  <therap>  (1517) 
antiviral

>  <ref>  (1517) 
Antimicrob Agents Chemother 19:226 (1981); 21:1 (1982); 31:826 (1987); Rev Infect Dis 3:408 (1981)

>  <cas#>  (1517) 
1501-84-4

>  <source>  (1517) 
synthetic; EXP-126

>  <status>  (1517) 
USP, INN, BAN

>  <tradename>  (1517) 
FLUMADINE

>  <SMILES>  (1517) 
CC(N)C12CC3CC(CC(C3)C1)C2

>  <standardized_failed>  (1517) 
False

$$$$

     RDKit          2D

 14 16  0  0  0  0  0  0  0  0999 V2000
    5.3667   -3.7167    0.0000 N   0  0  0  0  0  0  0  0  0  0  0  0
    5.3750   -2.8917    0.0000 C   0  0  0  0  0  0  0  0  0  0  0  0
    4.6542   -4.1292    0.0000 C   0  0  0  0  0  0  0  0  0  0  0  0
    6.0875   -2.4792    0.0000 C   0  0  0  0  0  0  0  0  0  0  0  0
    6.0875   -4.1292    0.0000 C   0  0  0  0  0  0  0  0  0  0  0  0
    4.6542   -2.4792    0.0000 C   0  0  0  0  0  0  0  0  0  0  0  0
    7.5125   -2.4792    0.0000 N   0  0  0  0  0  0  0  0  0  0  0  0
    6.8042   -2.8917    0.0000 C   0  0  0  0  0  0  0  0  0  0  0  0
    6.8000   -3.7125    0.0000 C   0  0  0  0  0  0  0  0  0  0  0  0
    3.9417   -2.9000    0.0000 C   0  0  0  0  0  0  0  0  0  0  0  0
    3.9417   -3.7250    0.0000 C   0  0  0  0  0  0  0  0  0  0  0  0
    4.6625   -4.9625    0.0000 O   0  0  0  0  0  0  0  0  0  0  0  0
    6.8000   -2.0625    0.0000 C   0  0  0  0  0  0  0  0  0  0  0  0
    7.5125   -3.3042    0.0000 C   0  0  0  0  0  0  0  0  0  0  0  0
  2  1  1  0
  3  1  1  0
  4  2  1  0
  5  1  1  0
  6  2  2  0
  7 14  1  0
  9  8  1  0
  9  5  1  6
 10 11  2  0
 11  3  1  0
 12  3  2  0
 13  4  1  0
 14  9  1  0
  8  4  1  0
  6 10  1  0
  7 13  1  0
M  END
>  <ID>  (1518) 


>  <MOLENAME>  (1518) 
CYTISINE

>  <therap>  (1518) 
antiinflammatory, respiratory stimulant

>  <ref>  (1518) 
J Chem Soc 1932: 2778; Br J Pharmacol 35:161 (1969)

>  <cas#>  (1518) 
485-35-8

>  <source>  (1518) 
Thermopsis lanceolata

>  <status>  (1518) 
INN

>  <tradename>  (1518) 
CYTITON

>  <SMILES>  (1518) 
O=c1cccc2C3CNC[C@@H](C3)Cn21

>  <standardized_failed>  (1518) 
False

$$$$

     RDKit          2D

 16 19  0  0  0  0  0  0  0  0999 V2000
    3.7042   -2.6292    0.0000 C   0  0  0  0  0  0  0  0  0  0  0  0
    4.5000   -2.7792    0.0000 C   0  0  0  0  0  0  0  0  0  0  0  0
    3.1917   -3.9417    0.0000 N   0  0  0  0  0  0  0  0  0  0  0  0
    3.1917   -3.1250    0.0000 C   0  0  0  0  0  0  0  0  0  0  0  0
    3.9167   -3.4292    0.0000 C   0  0  0  0  0  0  0  0  0  0  0  0
    3.6042   -1.8375    0.0000 O   0  0  0  0  0  0  0  0  0  0  0  0
    3.6792   -4.4292    0.0000 C   0  0  0  0  0  0  0  0  0  0  0  0
    4.3292   -1.4917    0.0000 C   0  0  0  0  0  0  0  0  0  0  0  0
    4.8792   -2.0750    0.0000 C   0  0  0  0  0  0  0  0  0  0  0  0
    4.8542   -3.5542    0.0000 C   0  0  0  0  0  0  0  0  0  0  0  0
    4.4667   -4.3000    0.0000 C   0  0  0  0  0  0  0  0  0  0  0  0
    4.4792   -0.6792    0.0000 O   0  0  0  0  0  0  0  0  0  0  0  0
    2.4792   -4.3542    0.0000 C   0  0  0  0  0  0  0  0  0  0  0  0
    2.4792   -2.7042    0.0000 C   0  0  0  0  0  0  0  0  0  0  0  0
    1.7667   -3.9500    0.0000 C   0  0  0  0  0  0  0  0  0  0  0  0
    1.7667   -3.1250    0.0000 C   0  0  0  0  0  0  0  0  0  0  0  0
  2  1  1  0
  3  4  1  0
  4  1  1  0
  1  5  1  0
  1  6  1  6
  7  5  1  0
  8  6  1  0
  9  2  2  0
 10  2  1  0
 11  7  1  0
 12  8  2  0
 13  3  1  0
  4 14  1  6
 15 16  1  0
 16 14  1  0
  7  3  1  1
  8  9  1  0
 10 11  2  0
 15 13  1  0
M  END
>  <ID>  (1519) 


>  <MOLENAME>  (1519) 
SECURININE

>  <therap>  (1519) 
GABAA receptor blocker, CNS stimulant

>  <ref>  (1519) 
Chem Ind 1962:1652; 1964:838, 1691; Naturwissenschaften 50:155 (1963)

>  <cas#>  (1519) 
5610-40-2

>  <source>  (1519) 
Securinega spp and Phyllanthus discoides

>  <status>  (1519) 
INN

>  <tradename>  (1519) 
nan

>  <SMILES>  (1519) 
O=C1C=C2C=C[C@@H]3C[C@@]2(O1)[C@H]1CCCCN31

>  <standardized_failed>  (1519) 
False

$$$$

     RDKit          2D

 32 33  0  0  0  0  0  0  0  0999 V2000
   -0.5333   -0.7917    0.0000 C   0  0  0  0  0  0  0  0  0  0  0  0
    4.4542   -2.8500    0.0000 C   0  0  0  0  0  0  0  0  0  0  0  0
    3.7417   -3.2625    0.0000 N   0  0  0  0  0  0  0  0  0  0  0  0
   -1.2500   -0.3792    0.0000 C   0  0  0  0  0  0  0  0  0  0  0  0
    5.1667   -3.2542    0.0000 C   0  0  0  0  0  0  0  0  0  0  0  0
    3.0292   -2.8542    0.0000 C   0  0  0  0  0  0  0  0  0  0  0  0
   -1.2500    0.4458    0.0000 C   0  0  0  0  0  0  0  0  0  0  0  0
   -0.5333   -1.6167    0.0000 O   0  0  0  0  0  0  0  0  0  0  0  0
    0.1792   -2.0292    0.0000 C   0  0  0  0  0  0  0  0  0  0  0  0
    1.6042   -2.8542    0.0000 C   0  0  0  0  0  0  0  0  0  0  0  0
    2.3167   -3.2667    0.0000 N   0  0  0  0  0  0  0  0  0  0  0  0
    0.1792   -2.8542    0.0000 C   0  0  0  0  0  0  0  0  0  0  0  0
    1.6042   -2.0292    0.0000 C   0  0  0  0  0  0  0  0  0  0  0  0
    0.8917   -1.6167    0.0000 C   0  0  0  0  0  0  0  0  0  0  0  0
    0.8917   -3.2667    0.0000 C   0  0  0  0  0  0  0  0  0  0  0  0
    4.4542   -2.0250    0.0000 O   0  0  0  0  0  0  0  0  0  0  0  0
    5.1667   -4.0792    0.0000 C   0  0  0  0  0  0  0  0  0  0  0  0
    5.8750   -2.8417    0.0000 C   0  0  0  0  0  0  0  0  0  0  0  0
    3.0292   -2.0292    0.0000 O   0  0  0  0  0  0  0  0  0  0  0  0
    0.1792   -0.3792    0.0000 F   0  0  0  0  0  0  0  0  0  0  0  0
   -0.5375    0.0333    0.0000 F   0  0  0  0  0  0  0  0  0  0  0  0
   -0.5333    0.8583    0.0000 F   0  0  0  0  0  0  0  0  0  0  0  0
   -1.9708    0.8583    0.0000 F   0  0  0  0  0  0  0  0  0  0  0  0
   -1.2583    1.2708    0.0000 F   0  0  0  0  0  0  0  0  0  0  0  0
   -1.9708   -0.7917    0.0000 F   0  0  0  0  0  0  0  0  0  0  0  0
    0.8917   -4.0917    0.0000 Cl  0  0  0  0  0  0  0  0  0  0  0  0
    0.8875   -0.7917    0.0000 Cl  0  0  0  0  0  0  0  0  0  0  0  0
    5.8667   -2.0167    0.0000 F   0  0  0  0  0  0  0  0  0  0  0  0
    4.4542   -4.4917    0.0000 F   0  0  0  0  0  0  0  0  0  0  0  0
    6.5917   -4.0667    0.0000 C   0  0  0  0  0  0  0  0  0  0  0  0
    6.5875   -3.2500    0.0000 C   0  0  0  0  0  0  0  0  0  0  0  0
    5.8792   -4.4875    0.0000 C   0  0  0  0  0  0  0  0  0  0  0  0
  2  3  1  0
  3  6  1  0
  4  1  1  0
  5  2  1  0
  6 11  1  0
  7  4  1  0
  8  1  1  0
  9  8  1  0
 10 13  1  0
 11 10  1  0
 12  9  2  0
 13 14  2  0
 14  9  1  0
 15 12  1  0
 16  2  2  0
 17  5  2  0
 18  5  1  0
 19  6  2  0
 20  1  1  0
 21  1  1  0
 22  7  1  0
 23  7  1  0
 24  7  1  0
 25  4  1  0
 26 15  1  0
 27 14  1  0
 28 18  1  0
 29 17  1  0
 30 31  1  0
 31 18  2  0
 32 17  1  0
 10 15  2  0
 30 32  2  0
M  END
>  <ID>  (1520) 


>  <MOLENAME>  (1520) 
LUFENURON

>  <therap>  (1520) 
molt inhibitor, chitin synthesis inhibitor; insecticide

>  <ref>  (1520) 
Pakistan J Biol Sci 6:1125 (2003)

>  <cas#>  (1520) 
103055-07-8

>  <source>  (1520) 
synthetic; CGA-184699

>  <status>  (1520) 
INN, BAN

>  <tradename>  (1520) 
PROGRAM

>  <SMILES>  (1520) 
O=C(NC(=O)c1c(F)cccc1F)Nc1c(Cl)cc(OC(F)(F)C(F)C(F)(F)F)c(Cl)c1

>  <standardized_failed>  (1520) 
False

$$$$

     RDKit          2D

 22 23  0  0  0  0  0  0  0  0999 V2000
    5.3042   -0.6167    0.0000 C   0  0  0  0  0  0  0  0  0  0  0  0
    5.3042    0.2083    0.0000 C   0  0  0  0  0  0  0  0  0  0  0  0
    4.5875    0.6208    0.0000 C   0  0  0  0  0  0  0  0  0  0  0  0
    3.8792   -0.6250    0.0000 C   0  0  0  0  0  0  0  0  0  0  0  0
    4.5917   -1.0375    0.0000 O   0  0  0  0  0  0  0  0  0  0  0  0
    3.8792    0.2000    0.0000 C   0  0  0  0  0  0  0  0  0  0  0  0
    1.0167   -0.6292    0.0000 P   0  0  0  0  0  0  0  0  0  0  0  0
    3.1625   -1.0417    0.0000 C   0  0  0  0  0  0  0  0  0  0  0  0
    0.3042   -0.2167    0.0000 S   0  0  0  0  0  0  0  0  0  0  0  0
    3.1625    0.6125    0.0000 C   0  0  0  0  0  0  0  0  0  0  0  0
    1.7292   -1.0417    0.0000 O   0  0  0  0  0  0  0  0  0  0  0  0
    6.0250   -1.0292    0.0000 O   0  0  0  0  0  0  0  0  0  0  0  0
    2.4417   -0.6292    0.0000 C   0  0  0  0  0  0  0  0  0  0  0  0
    6.0167    0.6250    0.0000 Cl  0  0  0  0  0  0  0  0  0  0  0  0
    1.0167    0.1958    0.0000 O   0  0  0  0  0  0  0  0  0  0  0  0
    0.3042   -1.0417    0.0000 O   0  0  0  0  0  0  0  0  0  0  0  0
    2.4417    0.2000    0.0000 C   0  0  0  0  0  0  0  0  0  0  0  0
    4.5792    1.4458    0.0000 C   0  0  0  0  0  0  0  0  0  0  0  0
    0.3042    0.6083    0.0000 C   0  0  0  0  0  0  0  0  0  0  0  0
    0.3042   -1.8667    0.0000 C   0  0  0  0  0  0  0  0  0  0  0  0
    0.3042    1.4333    0.0000 C   0  0  0  0  0  0  0  0  0  0  0  0
   -0.4083   -2.2792    0.0000 C   0  0  0  0  0  0  0  0  0  0  0  0
  2  1  1  0
  3  2  2  0
  4  5  1  0
  5  1  1  0
  6  4  2  0
  7 11  1  0
  8  4  1  0
  9  7  2  0
 10  6  1  0
 11 13  1  0
 12  1  2  0
 13  8  2  0
 14  2  1  0
 15  7  1  0
 16  7  1  0
 17 13  1  0
 18  3  1  0
 19 15  1  0
 20 16  1  0
 21 19  1  0
 22 20  1  0
  6  3  1  0
 10 17  2  0
M  END
>  <ID>  (1521) 


>  <MOLENAME>  (1521) 
COUMOPHOS

>  <therap>  (1521) 
insecticide, cholinesterase inhibitor

>  <ref>  (1521) 
J. Econ. Entomol. (1967), 60(4), 1021-5; Biochem. Pharmacol. (1967), 16(7), 1183-94; J. Agric. Food Chem. (1966), 14(6), 566-72.

>  <cas#>  (1521) 
56-72-4

>  <source>  (1521) 
synthetic; Bayer-21199

>  <status>  (1521) 
INN, BAN

>  <tradename>  (1521) 
MELDANE

>  <SMILES>  (1521) 
CCOP(=S)(OCC)Oc1cc2c(cc1)c(C)c(Cl)c(=O)o2

>  <standardized_failed>  (1521) 
False

$$$$

     RDKit          2D

 11 12  0  0  0  0  0  0  0  0999 V2000
    5.0375   -2.5875    0.0000 C   0  0  0  0  0  0  0  0  0  0  0  0
    4.5542   -3.2542    0.0000 S   0  0  0  0  0  0  0  0  0  0  0  0
    4.5417   -1.9167    0.0000 O   0  0  0  0  0  0  0  0  0  0  0  0
    3.7625   -2.1792    0.0000 C   0  0  0  0  0  0  0  0  0  0  0  0
    3.7667   -3.0042    0.0000 C   0  0  0  0  0  0  0  0  0  0  0  0
    3.0417   -1.7667    0.0000 C   0  0  0  0  0  0  0  0  0  0  0  0
    5.8625   -2.5792    0.0000 O   0  0  0  0  0  0  0  0  0  0  0  0
    3.0417   -3.4250    0.0000 C   0  0  0  0  0  0  0  0  0  0  0  0
    2.3292   -2.1875    0.0000 C   0  0  0  0  0  0  0  0  0  0  0  0
    2.3292   -3.0125    0.0000 C   0  0  0  0  0  0  0  0  0  0  0  0
    1.6167   -1.7667    0.0000 O   0  0  0  0  0  0  0  0  0  0  0  0
  2  1  1  0
  3  1  1  0
  4  3  1  0
  5  2  1  0
  6  4  2  0
  7  1  2  0
  8  5  2  0
  9  6  1  0
 10  8  1  0
 11  9  1  0
  5  4  1  0
 10  9  2  0
M  END
>  <ID>  (1522) 


>  <MOLENAME>  (1522) 
TIOXOLONE

>  <therap>  (1522) 
antiseborrhoic

>  <ref>  (1522) 
Bull Chem Soc Jpn 29:419 (1956)

>  <cas#>  (1522) 
4991-65-5

>  <source>  (1522) 
synthetic

>  <status>  (1522) 
INN, BAN

>  <tradename>  (1522) 
STEPIN

>  <SMILES>  (1522) 
O=c1oc2cc(O)ccc2s1

>  <standardized_failed>  (1522) 
False

$$$$

     RDKit          2D

 15 15  0  0  0  0  0  0  0  0999 V2000
    4.4917   -1.3042    0.0000 As  0  0  0  0  0  5  0  0  0  0  0  0
    3.7417   -1.3042    0.0000 C   0  0  0  0  0  0  0  0  0  0  0  0
    2.6167   -1.9542    0.0000 C   0  0  0  0  0  0  0  0  0  0  0  0
    3.3667   -1.9542    0.0000 C   0  0  0  0  0  0  0  0  0  0  0  0
    2.2375   -2.6042    0.0000 N   0  0  0  0  0  0  0  0  0  0  0  0
    2.6125   -3.2542    0.0000 C   0  0  0  0  0  0  0  0  0  0  0  0
    5.6292   -1.2917    0.0000 O   0  0  0  0  0  0  0  0  0  0  0  0
    2.2417   -1.3042    0.0000 C   0  0  0  0  0  0  0  0  0  0  0  0
    3.3667   -0.6542    0.0000 C   0  0  0  0  0  0  0  0  0  0  0  0
    3.3625   -3.2542    0.0000 O   0  0  0  0  0  0  0  0  0  0  0  0
    4.4792   -0.2292    0.0000 O   0  0  0  0  0  0  0  0  0  0  0  0
    4.4792   -2.2917    0.0000 O   0  0  0  0  0  0  0  0  0  0  0  0
    2.6167   -0.6542    0.0000 C   0  0  0  0  0  0  0  0  0  0  0  0
    1.4917   -1.3042    0.0000 O   0  0  0  0  0  0  0  0  0  0  0  0
    2.2375   -3.9042    0.0000 C   0  0  0  0  0  0  0  0  0  0  0  0
  2  1  1  0
  3  4  1  0
  4  2  2  0
  5  3  1  0
  6  5  1  0
  7  1  2  0
  8 13  1  0
  9  2  1  0
 10  6  2  0
 11  1  1  0
 12  1  1  0
 13  9  2  0
 14  8  1  0
 15  6  1  0
  3  8  2  0
M  END
>  <ID>  (1523) 


>  <MOLENAME>  (1523) 
ACETARSOL

>  <therap>  (1523) 
antiprotozoal; diethylamine salt as antiphilitic

>  <ref>  (1523) 
Lancet 2:688, 828 (1937); Br J Vener Dis 28:210 (1952); Br Med J 1961:1282

>  <cas#>  (1523) 
97-44-9

>  <source>  (1523) 
synthetic

>  <status>  (1523) 
NF, INN, BAN

>  <tradename>  (1523) 
STOVARSOL

>  <SMILES>  (1523) 
CC(=O)Nc1c(O)ccc([As](=O)(O)O)c1

>  <standardized_failed>  (1523) 
False

$$$$

     RDKit          2D

 23 23  0  0  0  0  0  0  0  0999 V2000
    4.3167   -2.9708    0.0000 C   0  0  0  0  0  0  0  0  0  0  0  0
    4.3167   -3.7958    0.0000 C   0  0  0  0  0  0  0  0  0  0  0  0
    3.5917   -4.2125    0.0000 C   0  0  0  0  0  0  0  0  0  0  0  0
    3.5917   -2.5583    0.0000 O   0  0  0  0  0  0  0  0  0  0  0  0
    5.7417   -2.9708    0.0000 C   0  0  0  0  0  0  0  0  0  0  0  0
    5.0292   -2.5583    0.0000 O   0  0  0  0  0  0  0  0  0  0  0  0
    2.8792   -3.7958    0.0000 C   0  0  0  0  0  0  0  0  0  0  0  0
    2.8792   -2.9708    0.0000 C   0  0  0  0  0  0  0  0  0  0  0  0
    6.4542   -2.5542    0.0000 C   0  0  0  0  0  0  0  0  0  0  0  0
    6.1542   -3.6792    0.0000 C   0  0  0  0  0  0  0  0  0  0  0  0
    6.4542   -1.7375    0.0000 C   0  0  0  0  0  0  0  0  0  0  0  0
    5.0292   -4.2125    0.0000 O   0  0  0  0  0  0  0  0  0  0  0  0
    3.5917   -5.0417    0.0000 O   0  0  0  0  0  0  0  0  0  0  0  0
    2.1625   -4.2125    0.0000 O   0  0  0  0  0  0  0  0  0  0  0  0
    7.1667   -2.9667    0.0000 O   0  0  0  0  0  0  0  0  0  0  0  0
    6.9792   -3.6792    0.0000 O   0  0  0  0  0  0  0  0  0  0  0  0
    5.7375   -1.3250    0.0000 O   0  0  0  0  0  0  0  0  0  0  0  0
    2.1625   -2.5583    0.0000 C   0  0  0  0  0  0  0  0  0  0  0  0
    1.5333   -3.0917    0.0000 O   0  0  0  0  0  0  0  0  0  0  0  0
    7.1667   -0.5042    0.0000 O   0  0  0  0  0  0  0  0  0  0  0  0
    6.1542   -5.1042    0.0000 O   0  0  0  0  0  0  0  0  0  0  0  0
    5.7417   -4.3917    0.0000 C   0  0  0  0  0  0  0  0  0  0  0  0
    7.1667   -1.3250    0.0000 C   0  0  0  0  0  0  0  0  0  0  0  0
  2  1  1  0
  3  2  1  0
  4  1  1  0
  5  6  1  1
  1  6  1  1
  7  3  1  0
  8  4  1  0
  9  5  1  0
 10  5  1  0
 11  9  1  0
  2 12  1  6
  3 13  1  1
  7 14  1  1
  9 15  1  1
 10 16  1  6
 11 17  1  1
  8 18  1  1
 19 18  1  0
 20 23  1  0
 21 22  1  0
 22 10  1  0
 23 11  1  0
  8  7  1  0
M  END
>  <ID>  (1524) 


>  <MOLENAME>  (1524) 
LACITOL

>  <therap>  (1524) 
laxative, sweetener

>  <ref>  (1524) 
Gut 29:1666 (1988); Eur J Nutrit 46:307 (2007)

>  <cas#>  (1524) 
585-86-4, 81025-04-9

>  <source>  (1524) 
synthetic

>  <status>  (1524) 
NF, INN, BAN

>  <tradename>  (1524) 
IMPORTAL

>  <SMILES>  (1524) 
OC[C@H](O)[C@@H](O)[C@H](O[C@@H]1O[C@H](CO)[C@H](O)[C@H](O)[C@H]1O)[C@H](O)CO

>  <standardized_failed>  (1524) 
False

$$$$

     RDKit          2D

 43 47  0  0  0  0  0  0  0  0999 V2000
    6.7542   -2.3542    0.0000 C   0  0  0  0  0  0  0  0  0  0  0  0
    3.8917   -1.5292    0.0000 C   0  0  0  0  0  0  0  0  0  0  0  0
    7.4667   -2.7625    0.0000 C   0  0  0  0  0  0  0  0  0  0  0  0
    3.8917   -2.3542    0.0000 C   0  0  0  0  0  0  0  0  0  0  0  0
    8.1792   -1.5250    0.0000 C   0  0  0  0  0  0  0  0  0  0  0  0
   -0.4208   -1.5542    0.0000 C   0  0  0  0  0  0  0  0  0  0  0  0
    8.1792   -2.3500    0.0000 C   0  0  0  0  0  0  0  0  0  0  0  0
    6.7542   -1.5250    0.0000 C   0  0  0  0  0  0  0  0  0  0  0  0
    3.1792   -2.7667    0.0000 C   0  0  0  0  0  0  0  0  0  0  0  0
   -1.1375   -1.1542    0.0000 C   0  0  0  0  0  0  0  0  0  0  0  0
    7.4667   -1.1125    0.0000 O   0  0  0  0  0  0  0  0  0  0  0  0
    0.2917   -1.1292    0.0000 C   0  0  0  0  0  0  0  0  0  0  0  0
    3.1792   -1.1167    0.0000 O   0  0  0  0  0  0  0  0  0  0  0  0
    2.4667   -2.3542    0.0000 C   0  0  0  0  0  0  0  0  0  0  0  0
    0.2792   -0.3042    0.0000 O   0  0  0  0  0  0  0  0  0  0  0  0
    2.4625   -1.5292    0.0000 C   0  0  0  0  0  0  0  0  0  0  0  0
    6.0417   -2.7625    0.0000 C   0  0  0  0  0  0  0  0  0  0  0  0
   -1.1500   -0.3292    0.0000 C   0  0  0  0  0  0  0  0  0  0  0  0
   -0.4333    0.1083    0.0000 C   0  0  0  0  0  0  0  0  0  0  0  0
    5.3250   -1.5250    0.0000 C   0  0  0  0  0  0  0  0  0  0  0  0
    8.9000   -1.1125    0.0000 C   0  0  0  0  0  0  0  0  0  0  0  0
    6.0417   -1.1125    0.0000 C   0  0  0  0  0  0  0  0  0  0  0  0
    4.6042   -1.1125    0.0000 O   0  0  0  0  0  0  0  0  0  0  0  0
    5.3250   -2.3500    0.0000 C   0  0  0  0  0  0  0  0  0  0  0  0
    8.9000   -0.2792    0.0000 C   0  0  0  0  0  0  0  0  0  0  0  0
    9.6125    0.1333    0.0000 C   0  0  0  0  0  0  0  0  0  0  0  0
    1.0167   -1.5375    0.0000 O   0  0  0  0  0  0  0  0  0  0  0  0
    7.4667   -3.5875    0.0000 O   0  0  0  0  0  0  0  0  0  0  0  0
    1.7292   -1.1167    0.0000 C   0  0  0  0  0  0  0  0  0  0  0  0
   10.3292   -0.2792    0.0000 C   0  0  0  0  0  0  0  0  0  0  0  0
    9.6125   -1.5250    0.0000 C   0  0  0  0  0  0  0  0  0  0  0  0
   10.3292   -1.1125    0.0000 C   0  0  0  0  0  0  0  0  0  0  0  0
    4.6167   -2.7750    0.0000 O   0  0  0  0  0  0  0  0  0  0  0  0
   -0.4083   -2.3792    0.0000 O   0  0  0  0  0  0  0  0  0  0  0  0
    3.1792   -3.5917    0.0000 O   0  0  0  0  0  0  0  0  0  0  0  0
   -1.8583   -1.5792    0.0000 O   0  0  0  0  0  0  0  0  0  0  0  0
    1.7417   -2.7750    0.0000 O   0  0  0  0  0  0  0  0  0  0  0  0
    6.0417   -3.5875    0.0000 O   0  0  0  0  0  0  0  0  0  0  0  0
   -1.8875    0.0625    0.0000 O   0  0  0  0  0  0  0  0  0  0  0  0
    9.6125    0.9583    0.0000 O   0  0  0  0  0  0  0  0  0  0  0  0
   11.0500    0.1375    0.0000 O   0  0  0  0  0  0  0  0  0  0  0  0
   -0.4333    0.9333    0.0000 C   0  0  0  0  0  0  0  0  0  0  0  0
   11.0417    0.9708    0.0000 C   0  0  0  0  0  0  0  0  0  0  0  0
  2 23  1  1
  3  1  1  0
  4  2  1  0
  5 11  1  0
  6 12  1  0
  7  3  1  0
  8  1  2  0
  9  4  1  0
 10  6  1  0
 11  8  1  0
 12 27  1  6
 13  2  1  0
 14 16  1  0
 15 12  1  0
 16 13  1  0
 17  1  1  0
 18 19  1  0
 19 15  1  0
 20 24  1  0
 21  5  1  0
 22  8  1  0
 23 20  1  0
 24 17  2  0
 25 21  2  0
 26 25  1  0
 27 29  1  0
 28  3  2  0
 16 29  1  1
 30 32  1  0
 31 21  1  0
 32 31  2  0
  4 33  1  6
  6 34  1  1
  9 35  1  1
 10 36  1  1
 14 37  1  6
 38 17  1  0
 18 39  1  6
 40 26  1  0
 41 30  1  0
 19 42  1  1
 43 41  1  0
 22 20  2  0
  5  7  2  0
 30 26  2  0
 14  9  1  0
 18 10  1  0
M  END
>  <ID>  (1525) 


>  <MOLENAME>  (1525) 
DIOSMIN

>  <therap>  (1525) 
vascular protectant

>  <ref>  (1525) 
Arch Farmacol Toxicol 3:33 (1977); Arzneim Forsch 37:1149 (1987)

>  <cas#>  (1525) 
520-27-4

>  <source>  (1525) 
Zanthoxylum avicennae

>  <status>  (1525) 
INN, BAN

>  <tradename>  (1525) 
DIOSMIL

>  <SMILES>  (1525) 
COc1c(O)cc(-c2cc(=O)c3c(cc(O[C@@H]4O[C@H](CO[C@H]5O[C@H](C)[C@@H](O)[C@H](O)[C@@H]5O)[C@@H](O)[C@H](O)[C@H]4O)cc3O)o2)cc1

>  <standardized_failed>  (1525) 
False

$$$$

     RDKit          2D

 22 24  0  0  0  0  0  0  0  0999 V2000
    4.1750    0.0625    0.0000 N   0  0  0  0  0  0  0  0  0  0  0  0
    4.3167    1.2083    0.0000 C   0  0  0  0  0  0  0  0  0  0  0  0
    4.6792   -1.2542    0.0000 C   0  0  0  0  0  0  0  0  0  0  0  0
    7.1792   -1.7500    0.0000 C   0  0  0  0  0  0  0  0  0  0  0  0
    7.1792   -2.5792    0.0000 C   0  0  0  0  0  0  0  0  0  0  0  0
    3.3000    0.4375    0.0000 C   0  0  0  0  0  0  0  0  0  0  0  0
    3.6542   -0.6875    0.0000 C   0  0  0  0  0  0  0  0  0  0  0  0
    5.2667   -0.5000    0.0000 C   0  0  0  0  0  0  0  0  0  0  0  0
    5.7417    0.7125    0.0000 C   0  0  0  0  0  0  0  0  0  0  0  0
    6.1417   -0.3125    0.0000 C   0  0  0  0  0  0  0  0  0  0  0  0
    6.4667   -1.3375    0.0000 O   0  0  0  0  0  0  0  0  0  0  0  0
    7.8917   -1.3375    0.0000 O   0  0  0  0  0  0  0  0  0  0  0  0
    7.9042   -3.0000    0.0000 C   0  0  0  0  0  0  0  0  0  0  0  0
    5.4875    0.4083    0.0000 C   0  0  0  0  0  0  0  0  0  0  0  0
    2.8292   -1.2792    0.0000 O   0  0  0  0  0  0  0  0  0  0  0  0
    6.4667   -2.9917    0.0000 C   0  0  0  0  0  0  0  0  0  0  0  0
    5.7542   -2.5792    0.0000 O   0  0  0  0  0  0  0  0  0  0  0  0
    7.9042   -3.8250    0.0000 C   0  0  0  0  0  0  0  0  0  0  0  0
    8.6167   -2.5875    0.0000 C   0  0  0  0  0  0  0  0  0  0  0  0
    8.6167   -4.2375    0.0000 C   0  0  0  0  0  0  0  0  0  0  0  0
    9.3292   -3.0000    0.0000 C   0  0  0  0  0  0  0  0  0  0  0  0
    9.3292   -3.8250    0.0000 C   0  0  0  0  0  0  0  0  0  0  0  0
  2  1  1  0
  3  1  1  0
  4 11  1  0
  5  4  1  0
  6  2  1  0
  7  3  1  0
  3  8  1  6
  9  2  1  0
 10  8  1  0
 10 11  1  6
 12  4  2  0
 13  5  1  0
 14  1  1  0
  7 15  1  1
  5 16  1  1
 17 16  1  0
 18 13  2  0
 19 13  1  0
 20 18  1  0
 21 19  2  0
 22 21  1  0
  7  6  1  0
  9 10  1  0
 22 20  2  0
M  END
>  <ID>  (1526) 


>  <MOLENAME>  (1526) 
ANISODAMINE HYDROBROMIDE

>  <therap>  (1526) 
anticholinergic, antispasmodic

>  <ref>  (1526) 
Naturwissenschaften 49: 281 (1962)

>  <cas#>  (1526) 
17659-49-3

>  <source>  (1526) 
Scopolia tanguticus

>  <status>  (1526) 
CHINA

>  <tradename>  (1526) 
nan

>  <SMILES>  (1526) 
CN1C2C[C@H](OC(=O)[C@H](CO)c3ccccc3)C[C@@H]1[C@@H](O)C2

>  <standardized_failed>  (1526) 
False

$$$$

     RDKit          2D

  8  8  0  0  0  0  0  0  0  0999 V2000
    5.9292    0.7833    0.0000 C   0  0  0  0  0  0  0  0  0  0  0  0
    5.9417    1.6083    0.0000 N   0  0  0  0  0  0  0  0  0  0  0  0
    5.1417    0.5375    0.0000 N   0  0  0  0  0  0  0  0  0  0  0  0
    5.1625    1.8708    0.0000 C   0  0  0  0  0  0  0  0  0  0  0  0
    4.6667    1.2083    0.0000 C   0  0  0  0  0  0  0  0  0  0  0  0
    6.5125    0.1958    0.0000 N   0  0  0  0  0  0  0  0  0  0  0  0
    4.9167    2.6583    0.0000 O   0  0  0  0  0  0  0  0  0  0  0  0
    4.8750   -0.2417    0.0000 C   0  0  0  0  0  0  0  0  0  0  0  0
  2  1  1  0
  3  1  1  0
  4  2  1  0
  5  3  1  0
  6  1  2  0
  7  4  2  0
  8  3  1  0
  5  4  1  0
M  END
>  <ID>  (1527) 


>  <MOLENAME>  (1527) 
CREATININE

>  <therap>  (1527) 
metabolic enhancer

>  <ref>  (1527) 
J Biol Chem 81:73 (1929); JACS 93:5552 (1971)

>  <cas#>  (1527) 
60-27-5

>  <source>  (1527) 
metabolite in muscle and urine; renal metabolite

>  <status>  (1527) 
NF

>  <tradename>  (1527) 
nan

>  <SMILES>  (1527) 
CN1CC(=O)NC1=N

>  <standardized_failed>  (1527) 
False

$$$$

     RDKit          2D

 11 11  0  0  0  0  0  0  0  0999 V2000
    5.6083   -2.8292    0.0000 C   0  0  0  0  0  0  0  0  0  0  0  0
    4.8958   -3.2458    0.0000 C   0  0  0  0  0  0  0  0  0  0  0  0
    5.6042   -2.0042    0.0000 O   0  0  0  0  0  0  0  0  0  0  0  0
    4.8958   -4.0750    0.0000 C   0  0  0  0  0  0  0  0  0  0  0  0
    4.1792   -2.8333    0.0000 C   0  0  0  0  0  0  0  0  0  0  0  0
    3.4667   -4.0750    0.0000 C   0  0  0  0  0  0  0  0  0  0  0  0
    4.1792   -4.4875    0.0000 C   0  0  0  0  0  0  0  0  0  0  0  0
    3.4667   -3.2500    0.0000 C   0  0  0  0  0  0  0  0  0  0  0  0
    2.7500   -4.4875    0.0000 O   0  0  0  0  0  0  0  0  0  0  0  0
    6.3250   -3.2375    0.0000 C   0  0  0  0  0  0  0  0  0  0  0  0
    7.0375   -2.8250    0.0000 C   0  0  0  0  0  0  0  0  0  0  0  0
  2  1  1  0
  3  1  2  0
  4  2  2  0
  5  2  1  0
  6  7  2  0
  7  4  1  0
  8  5  2  0
  9  6  1  0
 10  1  1  0
 11 10  1  0
  6  8  1  0
M  END
>  <ID>  (1528) 


>  <MOLENAME>  (1528) 
PAROXYPROPIONE

>  <therap>  (1528) 
gonadotropic hormone inhibitor

>  <ref>  (1528) 
JACS 49:1028 (1927)

>  <cas#>  (1528) 
70-70-2

>  <source>  (1528) 
synthetic; B-360, H-365

>  <status>  (1528) 
INN

>  <tradename>  (1528) 
PROFENONE

>  <SMILES>  (1528) 
CCC(=O)c1ccc(O)cc1

>  <standardized_failed>  (1528) 
False

$$$$

     RDKit          2D

 19 21  0  0  0  0  0  0  0  0999 V2000
    4.1167   -3.8375    0.0000 C   0  0  0  0  0  0  0  0  0  0  0  0
    5.5417   -3.8375    0.0000 C   0  0  0  0  0  0  0  0  0  0  0  0
    4.8292   -3.4167    0.0000 C   0  0  0  0  0  0  0  0  0  0  0  0
    3.4042   -3.4250    0.0000 C   0  0  0  0  0  0  0  0  0  0  0  0
    6.2583   -3.4250    0.0000 C   0  0  0  0  0  0  0  0  0  0  0  0
    6.9708   -3.8417    0.0000 C   0  0  0  0  0  0  0  0  0  0  0  0
    2.6917   -3.8417    0.0000 C   0  0  0  0  0  0  0  0  0  0  0  0
    1.9333   -3.5125    0.0000 S   0  0  0  0  0  0  0  0  0  0  0  0
    7.7292   -3.5042    0.0000 S   0  0  0  0  0  0  0  0  0  0  0  0
    4.8292   -2.5917    0.0000 O   0  0  0  0  0  0  0  0  0  0  0  0
    8.2792   -4.1167    0.0000 C   0  0  0  0  0  0  0  0  0  0  0  0
    1.3833   -4.1250    0.0000 C   0  0  0  0  0  0  0  0  0  0  0  0
    2.6042   -4.6667    0.0000 C   0  0  0  0  0  0  0  0  0  0  0  0
    7.0583   -4.6583    0.0000 C   0  0  0  0  0  0  0  0  0  0  0  0
    1.8000   -4.8375    0.0000 C   0  0  0  0  0  0  0  0  0  0  0  0
    7.8667   -4.8292    0.0000 C   0  0  0  0  0  0  0  0  0  0  0  0
    5.5417   -4.6625    0.0000 C   0  0  0  0  0  0  0  0  0  0  0  0
    4.1167   -4.6625    0.0000 C   0  0  0  0  0  0  0  0  0  0  0  0
    4.8292   -5.0667    0.0000 C   0  0  0  0  0  0  0  0  0  0  0  0
  2  3  1  0
  3  1  1  0
  4  1  2  0
  5  2  2  0
  6  5  1  0
  7  4  1  0
  8  7  1  0
  9  6  1  0
 10  3  2  0
 11  9  1  0
 12  8  1  0
 13  7  2  0
 14  6  2  0
 15 13  1  0
 16 14  1  0
 17  2  1  0
 18  1  1  0
 19 18  1  0
 17 19  1  0
 15 12  2  0
 11 16  2  0
M  END
>  <ID>  (1529) 


>  <MOLENAME>  (1529) 
TENYLIDONE

>  <therap>  (1529) 
contrast agent

>  <ref>  (1529) 
Ger. Offen. (1973), DE 2245518 A1 19730426, ; (1962), FR M64 19620227, ; J. Org. Chem. (1957), 22, 652-4.

>  <cas#>  (1529) 
893-01-6

>  <source>  (1529) 
synthetic

>  <status>  (1529) 
INN

>  <tradename>  (1529) 
nan

>  <SMILES>  (1529) 
O=C1/C(=C/c2cccs2)CCC/C1=C\c1cccs1

>  <standardized_failed>  (1529) 
False

$$$$

     RDKit          2D

  9  8  0  0  0  0  0  0  0  0999 V2000
    7.5500   -1.9542    0.0000 C   0  0  0  0  0  0  0  0  0  0  0  0
    7.5500   -1.1292    0.0000 O   0  0  0  0  0  0  0  0  0  0  0  0
    6.7750   -2.2250    0.0000 C   0  0  0  0  0  0  0  0  0  0  0  0
    8.2250   -2.4292    0.0000 O   0  0  0  0  0  0  0  0  0  0  0  0
    6.7542   -3.0375    0.0000 N   0  0  0  0  0  0  0  0  0  0  0  0
    4.7792   -1.4000    0.0000 Se  0  0  0  0  0  2  0  0  0  0  0  0
    6.0875   -1.7625    0.0000 C   0  0  0  0  0  0  0  0  0  0  0  0
    5.3000   -2.0417    0.0000 C   0  0  0  0  0  0  0  0  0  0  0  0
    3.9958   -1.6792    0.0000 C   0  0  0  0  0  0  0  0  0  0  0  0
  2  1  2  0
  3  1  1  0
  4  1  1  0
  3  5  1  1
  6  8  1  0
  7  3  1  0
  8  7  1  0
  9  6  1  0
M  END
>  <ID>  (1530) 


>  <MOLENAME>  (1530) 
SELENOMETHIONINE

>  <therap>  (1530) 
contrast agent

>  <ref>  (1530) 
Br J Radiol 49:979 (1976); J Nutr 130:1653 (2000)

>  <cas#>  (1530) 
1464-42-2

>  <source>  (1530) 
synthetic

>  <status>  (1530) 
INN

>  <tradename>  (1530) 
nan

>  <SMILES>  (1530) 
C[Se]CC[C@H](N)C(=O)O

>  <standardized_failed>  (1530) 
False

$$$$

     RDKit          2D

 21 22  0  0  0  0  0  0  0  0999 V2000
   11.7667   -1.9667    0.0000 S   0  0  0  0  0  0  0  0  0  0  0  0
    6.1250   -2.8875    0.0000 N   0  0  0  0  0  0  0  0  0  0  0  0
    6.8375   -2.4708    0.0000 C   0  0  0  0  0  0  0  0  0  0  0  0
    5.4083   -2.4750    0.0000 C   0  0  0  0  0  0  0  0  0  0  0  0
    5.4083   -1.6500    0.0000 C   0  0  0  0  0  0  0  0  0  0  0  0
    6.8333   -1.6417    0.0000 C   0  0  0  0  0  0  0  0  0  0  0  0
    7.5542   -2.8792    0.0000 C   0  0  0  0  0  0  0  0  0  0  0  0
    4.6917   -2.8917    0.0000 C   0  0  0  0  0  0  0  0  0  0  0  0
    6.1167   -1.2333    0.0000 C   0  0  0  0  0  0  0  0  0  0  0  0
   12.1500   -1.4167    0.0000 O   0  0  0  0  0  0  0  0  0  0  0  0
   11.3667   -2.5792    0.0000 O   0  0  0  0  0  0  0  0  0  0  0  0
   11.1958   -1.6375    0.0000 O   0  0  0  0  0  0  0  0  0  0  0  0
   12.3417   -2.3042    0.0000 O   0  0  0  0  0  0  0  0  0  0  0  0
    7.5458   -1.2250    0.0000 C   0  0  0  0  0  0  0  0  0  0  0  0
    4.6917   -1.2375    0.0000 C   0  0  0  0  0  0  0  0  0  0  0  0
    3.9792   -2.4792    0.0000 C   0  0  0  0  0  0  0  0  0  0  0  0
    8.2708   -2.4625    0.0000 C   0  0  0  0  0  0  0  0  0  0  0  0
    8.9917   -2.8708    0.0000 N   0  0  0  0  0  0  0  0  0  0  0  0
    3.2625   -2.8917    0.0000 N   0  0  0  0  0  0  0  0  0  0  0  0
    3.9792   -1.6500    0.0000 C   0  0  0  0  0  0  0  0  0  0  0  0
    8.2625   -1.6292    0.0000 C   0  0  0  0  0  0  0  0  0  0  0  0
  3  2  2  0
  4  2  1  0
  5  4  2  0
  6  3  1  0
  7  3  1  0
  8  4  1  0
  9  6  2  0
 10  1  2  0
 11  1  2  0
 12  1  1  0
 13  1  1  0
 14  6  1  0
 15  5  1  0
 16  8  2  0
 17  7  2  0
 18 17  1  0
 19 16  1  0
 20 16  1  0
 21 14  2  0
  5  9  1  0
 21 17  1  0
 20 15  2  0
M  END
>  <ID>  (1531) 


>  <MOLENAME>  (1531) 
PROFLAVINE HEMISULFATE

>  <therap>  (1531) 
antiseptic

>  <ref>  (1531) 
Brit J Exper Path 28:1 (1947)

>  <cas#>  (1531) 
553-30-0, 1811-28-5

>  <source>  (1531) 
synthetic

>  <status>  (1531) 
INN, NF-IX

>  <tradename>  (1531) 
nan

>  <SMILES>  (1531) 
Nc1cc2nc3c(ccc(N)c3)cc2cc1

>  <standardized_failed>  (1531) 
False

$$$$

     RDKit          2D

 20 23  0  0  0  0  0  0  0  0999 V2000
    6.2167   -3.3917    0.0000 C   0  0  0  0  0  0  0  0  0  0  0  0
    5.7792   -3.8375    0.0000 C   0  0  0  0  0  0  0  0  0  0  0  0
    6.9042   -3.6542    0.0000 C   0  0  0  0  0  0  0  0  0  0  0  0
    5.7667   -4.5625    0.0000 O   0  0  0  0  0  0  0  0  0  0  0  0
    6.4417   -4.8250    0.0000 C   0  0  0  0  0  0  0  0  0  0  0  0
    5.3917   -3.3875    0.0000 O   0  0  0  0  0  0  0  0  0  0  0  0
    5.0292   -3.8375    0.0000 O   0  0  0  0  0  0  0  0  0  0  0  0
    6.1042   -2.6750    0.0000 C   0  0  0  0  0  0  0  0  0  0  0  0
    4.3917   -3.4042    0.0000 C   0  0  0  0  0  0  0  0  0  0  0  0
    7.0167   -4.3750    0.0000 C   0  0  0  0  0  0  0  0  0  0  0  0
    5.1750   -2.8042    0.0000 O   0  0  0  0  0  0  0  0  0  0  0  0
    7.4667   -3.1917    0.0000 C   0  0  0  0  0  0  0  0  0  0  0  0
    5.3042   -2.3250    0.0000 C   0  0  0  0  0  0  0  0  0  0  0  0
    6.5542   -5.5500    0.0000 O   0  0  0  0  0  0  0  0  0  0  0  0
    6.6667   -2.2042    0.0000 C   0  0  0  0  0  0  0  0  0  0  0  0
    7.3542   -2.4667    0.0000 C   0  0  0  0  0  0  0  0  0  0  0  0
    4.5917   -2.6500    0.0000 C   0  0  0  0  0  0  0  0  0  0  0  0
    3.6417   -3.7417    0.0000 C   0  0  0  0  0  0  0  0  0  0  0  0
    7.7167   -4.5625    0.0000 C   0  0  0  0  0  0  0  0  0  0  0  0
    6.6667   -1.4750    0.0000 C   0  0  0  0  0  0  0  0  0  0  0  0
  2  1  1  0
  3  1  1  0
  2  4  1  6
  5 10  1  0
  1  6  1  6
  7  2  1  0
  8  1  1  0
  9 11  1  0
 10  3  1  0
 11  6  1  0
  3 12  1  1
  8 13  1  1
 14  5  2  0
 15  8  1  0
 16 15  1  0
 17 13  1  0
  9 18  1  6
 10 19  1  1
 15 20  1  6
 16 12  1  0
  9 17  1  0
  7  9  1  0
  5  4  1  0
M  END
>  <ID>  (1532) 


>  <MOLENAME>  (1532) 
ARTEMISININ

>  <therap>  (1532) 
antimalarial

>  <ref>  (1532) 
Science 228:1049 (1985); Drugs 52:818 (1996); Trends Pharmacol Sci 20:199 (1999)

>  <cas#>  (1532) 
63968-64-9

>  <source>  (1532) 
Artemisia annua

>  <status>  (1532) 
INN

>  <tradename>  (1532) 
nan

>  <SMILES>  (1532) 
C[C@@H]1CC[C@H]2[C@@H](C)C(=O)O[C@@H]3O[C@@]4(C)CC[C@@H]1[C@]32OO4

>  <standardized_failed>  (1532) 
False

$$$$

     RDKit          2D

 21 22  0  0  0  0  0  0  0  0999 V2000
    2.4083   -0.4083    0.0000 C   0  0  0  0  0  0  0  0  0  0  0  0
    1.9917   -1.1208    0.0000 C   0  0  0  0  0  0  0  0  0  0  0  0
    3.2292   -0.4042    0.0000 C   0  0  0  0  0  0  0  0  0  0  0  0
    1.9958    0.3083    0.0000 O   0  0  0  0  0  0  0  0  0  0  0  0
    3.2292   -1.8333    0.0000 C   0  0  0  0  0  0  0  0  0  0  0  0
   -0.0667    1.0167    0.0000 C   0  0  0  0  0  0  0  0  0  0  0  0
    0.7583    1.0208    0.0000 C   0  0  0  0  0  0  0  0  0  0  0  0
    4.4667   -2.5500    0.0000 C   0  0  0  0  0  0  0  0  0  0  0  0
    2.4042   -1.8333    0.0000 C   0  0  0  0  0  0  0  0  0  0  0  0
    3.6417   -1.1167    0.0000 C   0  0  0  0  0  0  0  0  0  0  0  0
    1.1708    0.3083    0.0000 C   0  0  0  0  0  0  0  0  0  0  0  0
   -0.4750    0.3042    0.0000 C   0  0  0  0  0  0  0  0  0  0  0  0
    4.8792   -1.8333    0.0000 O   0  0  0  0  0  0  0  0  0  0  0  0
    3.6417   -2.5500    0.0000 C   0  0  0  0  0  0  0  0  0  0  0  0
   -0.0667   -0.4042    0.0000 C   0  0  0  0  0  0  0  0  0  0  0  0
    3.6375    0.3125    0.0000 I   0  0  0  0  0  0  0  0  0  0  0  0
    1.1667   -1.1167    0.0000 I   0  0  0  0  0  0  0  0  0  0  0  0
   -0.4833    1.7292    0.0000 I   0  0  0  0  0  0  0  0  0  0  0  0
    0.7583   -0.4042    0.0000 C   0  0  0  0  0  0  0  0  0  0  0  0
    4.8792   -3.2625    0.0000 O   0  0  0  0  0  0  0  0  0  0  0  0
   -1.3000    0.3042    0.0000 O   0  0  0  0  0  0  0  0  0  0  0  0
  2  1  2  0
  3  1  1  0
  4  1  1  0
  5  9  2  0
  6  7  2  0
  7 11  1  0
  8 14  1  0
  9  2  1  0
 10  3  2  0
 11  4  1  0
 12  6  1  0
 13  8  2  0
 14  5  1  0
 15 19  1  0
 16  3  1  0
 17  2  1  0
 18  6  1  0
 19 11  2  0
 20  8  1  0
 21 12  1  0
 10  5  1  0
 15 12  2  0
M  END
>  <ID>  (1533) 


>  <MOLENAME>  (1533) 
TIRATRICOL

>  <therap>  (1533) 
thyroid agent

>  <ref>  (1533) 
J Clin Endocrinol Metab 75:901 (1992)

>  <cas#>  (1533) 
51-24-1

>  <source>  (1533) 
synthetic

>  <status>  (1533) 
INN

>  <tradename>  (1533) 
TRIAC

>  <SMILES>  (1533) 
O=C(O)Cc1cc(I)c(Oc2ccc(O)c(I)c2)c(I)c1

>  <standardized_failed>  (1533) 
False

$$$$

     RDKit          2D

 12 12  0  0  0  0  0  0  0  0999 V2000
    1.5292   -0.4792    0.0000 N   0  0  0  0  0  0  0  0  0  0  0  0
    0.8667   -0.9625    0.0000 C   0  0  0  0  0  0  0  0  0  0  0  0
    1.5292    0.3458    0.0000 C   0  0  0  0  0  0  0  0  0  0  0  0
    2.1917   -0.9625    0.0000 C   0  0  0  0  0  0  0  0  0  0  0  0
    1.1167   -1.7500    0.0000 N   0  0  0  0  0  0  0  0  0  0  0  0
    1.9417   -1.7500    0.0000 C   0  0  0  0  0  0  0  0  0  0  0  0
    0.0792   -0.7042    0.0000 S   0  0  0  0  0  0  0  0  0  0  0  0
    0.8125    0.7583    0.0000 O   0  0  0  0  0  0  0  0  0  0  0  0
    2.2417    0.7583    0.0000 O   0  0  0  0  0  0  0  0  0  0  0  0
    0.6292   -2.4167    0.0000 C   0  0  0  0  0  0  0  0  0  0  0  0
    2.9542    0.3458    0.0000 C   0  0  0  0  0  0  0  0  0  0  0  0
    3.6667    0.7583    0.0000 C   0  0  0  0  0  0  0  0  0  0  0  0
  2  1  1  0
  3  1  1  0
  4  1  1  0
  5  2  1  0
  6  4  2  0
  7  2  2  0
  8  3  2  0
  9  3  1  0
 10  5  1  0
 11  9  1  0
 12 11  1  0
  6  5  1  0
M  END
>  <ID>  (1534) 


>  <MOLENAME>  (1534) 
CARBIMAZOLE

>  <therap>  (1534) 
antithyroid

>  <ref>  (1534) 
Clin Endocrinol 10:655 (1979)

>  <cas#>  (1534) 
22232-54-8

>  <source>  (1534) 
synthetic

>  <status>  (1534) 
INN, BAN

>  <tradename>  (1534) 
nan

>  <SMILES>  (1534) 
CCOC(=O)n1ccn(C)c1=S

>  <standardized_failed>  (1534) 
False

$$$$

     RDKit          2D

  8  8  0  0  0  0  0  0  0  0999 V2000
    4.4292   -3.2708    0.0000 N   0  0  0  0  0  0  0  0  0  0  0  0
    5.1458   -2.0292    0.0000 C   0  0  0  0  0  0  0  0  0  0  0  0
    6.5750   -2.0208    0.0000 N   0  0  0  0  0  0  0  0  0  0  0  0
    5.1458   -2.8583    0.0000 C   0  0  0  0  0  0  0  0  0  0  0  0
    5.8583   -1.6125    0.0000 C   0  0  0  0  0  0  0  0  0  0  0  0
    3.7167   -2.8583    0.0000 C   0  0  0  0  0  0  0  0  0  0  0  0
    4.4292   -1.6167    0.0000 C   0  0  0  0  0  0  0  0  0  0  0  0
    3.7167   -2.0292    0.0000 C   0  0  0  0  0  0  0  0  0  0  0  0
  2  4  1  0
  3  5  1  0
  4  1  2  0
  5  2  1  0
  6  1  1  0
  7  2  2  0
  8  6  2  0
  8  7  1  0
M  END
>  <ID>  (1535) 


>  <MOLENAME>  (1535) 
PICOLAMINE

>  <therap>  (1535) 
rubefacient

>  <ref>  (1535) 
Arzneim. Forsch. (1986), 36(8), 1191-4; Chim. Ther. (1973), 8(5), 588-96; Agric. Biol. Chem. (1968), 32(11), 1341-8.

>  <cas#>  (1535) 
3731-52-0

>  <source>  (1535) 
synthetic

>  <status>  (1535) 
INN

>  <tradename>  (1535) 
nan

>  <SMILES>  (1535) 
NCc1cccnc1

>  <standardized_failed>  (1535) 
False

$$$$

     RDKit          2D

 44 49  0  0  0  0  0  0  0  0999 V2000
    7.0042   -3.4208    0.0000 N   0  0  0  0  0  0  0  0  0  0  0  0
    8.1625   -4.2417    0.0000 C   0  0  0  0  0  0  0  0  0  0  0  0
    6.5250   -4.0917    0.0000 C   0  0  0  0  0  0  0  0  0  0  0  0
    7.6875   -4.9125    0.0000 C   0  0  0  0  0  0  0  0  0  0  0  0
    7.8208   -3.5000    0.0000 C   0  0  0  0  0  0  0  0  0  0  0  0
    5.7375   -3.8458    0.0000 C   0  0  0  0  0  0  0  0  0  0  0  0
    5.7292   -3.0208    0.0000 C   0  0  0  0  0  0  0  0  0  0  0  0
    6.8667   -4.8375    0.0000 C   0  0  0  0  0  0  0  0  0  0  0  0
    5.0208   -4.2667    0.0000 N   0  0  0  0  0  0  0  0  0  0  0  0
    8.0292   -5.6583    0.0000 C   0  0  0  0  0  0  0  0  0  0  0  0
    6.5125   -2.7583    0.0000 C   0  0  0  0  0  0  0  0  0  0  0  0
    1.4458   -3.0333    0.0000 C   0  0  0  0  0  0  0  0  0  0  0  0
    5.0125   -2.6125    0.0000 C   0  0  0  0  0  0  0  0  0  0  0  0
    0.7333   -2.6208    0.0000 N   0  0  0  0  0  0  0  0  0  0  0  0
    8.8458   -5.7375    0.0000 C   0  0  0  0  0  0  0  0  0  0  0  0
    4.3042   -3.0292    0.0000 C   0  0  0  0  0  0  0  0  0  0  0  0
    4.3042   -3.8542    0.0000 C   0  0  0  0  0  0  0  0  0  0  0  0
    8.9792   -4.3167    0.0000 C   0  0  0  0  0  0  0  0  0  0  0  0
    9.3250   -5.0667    0.0000 O   0  0  0  0  0  0  0  0  0  0  0  0
   -1.4083   -1.3750    0.0000 N   0  0  0  0  0  0  0  0  0  0  0  0
    2.1625   -2.6208    0.0000 O   0  0  0  0  0  0  0  0  0  0  0  0
   -0.6917   -1.7917    0.0000 C   0  0  0  0  0  0  0  0  0  0  0  0
    8.2958   -2.8250    0.0000 O   0  0  0  0  0  0  0  0  0  0  0  0
    3.5875   -2.6167    0.0000 C   0  0  0  0  0  0  0  0  0  0  0  0
   -0.6958   -2.6167    0.0000 C   0  0  0  0  0  0  0  0  0  0  0  0
    0.0250   -1.3833    0.0000 C   0  0  0  0  0  0  0  0  0  0  0  0
    0.0208   -3.0333    0.0000 C   0  0  0  0  0  0  0  0  0  0  0  0
    0.7333   -1.7958    0.0000 C   0  0  0  0  0  0  0  0  0  0  0  0
    1.4458   -3.8583    0.0000 O   0  0  0  0  0  0  0  0  0  0  0  0
    2.8750   -3.0292    0.0000 C   0  0  0  0  0  0  0  0  0  0  0  0
    9.1875   -6.4875    0.0000 O   0  0  0  0  0  0  0  0  0  0  0  0
    3.5875   -4.2708    0.0000 C   0  0  0  0  0  0  0  0  0  0  0  0
    7.8125   -6.4542    0.0000 O   0  0  0  0  0  0  0  0  0  0  0  0
    2.8750   -3.8583    0.0000 C   0  0  0  0  0  0  0  0  0  0  0  0
    7.2292   -5.8667    0.0000 C   0  0  0  0  0  0  0  0  0  0  0  0
    5.0083   -1.7875    0.0000 C   0  0  0  0  0  0  0  0  0  0  0  0
   -1.8125   -3.6500    0.0000 Cl  0  0  0  0  0  0  0  0  0  0  0  0
   -1.4042   -0.5500    0.0000 C   0  0  0  0  0  0  0  0  0  0  0  0
   -2.1208   -1.7833    0.0000 C   0  0  0  0  0  0  0  0  0  0  0  0
    6.6458   -5.2833    0.0000 C   0  0  0  0  0  0  0  0  0  0  0  0
    5.7208   -1.3708    0.0000 C   0  0  0  0  0  0  0  0  0  0  0  0
   -2.1125   -0.1333    0.0000 C   0  0  0  0  0  0  0  0  0  0  0  0
   -2.8375   -1.3667    0.0000 C   0  0  0  0  0  0  0  0  0  0  0  0
   -2.8333   -0.5417    0.0000 C   0  0  0  0  0  0  0  0  0  0  0  0
  2  5  1  0
  3  1  1  0
  4  2  2  0
  5  1  1  0
  6  3  1  0
  7 11  1  0
  8  3  2  0
  9  6  2  0
 10  4  1  0
 11  1  1  0
 12 21  1  0
 13  7  2  0
 14 12  1  0
 15 19  1  0
 16 13  1  0
 17  9  1  0
 18  2  1  0
 19 18  1  0
 20 22  1  0
 21 30  1  0
 22 25  1  0
 23  5  2  0
 24 16  2  0
 25 27  1  0
 26 28  1  0
 27 14  1  0
 28 14  1  0
 29 12  2  0
 30 24  1  0
 31 15  2  0
 32 17  2  0
 10 33  1  1
 34 32  1  0
 10 35  1  0
 36 13  1  0
 38 20  1  0
 39 20  1  0
 40 35  1  0
 41 36  1  0
 42 38  1  0
 43 39  1  0
 44 43  1  0
  4  8  1  0
  6  7  1  0
 17 16  1  0
 15 10  1  0
 34 30  2  0
 22 26  1  0
 44 42  1  0
M  END
>  <ID>  (1536) 


>  <MOLENAME>  (1536) 
IRINOTECAN HYDROCHLORIDE

>  <therap>  (1536) 
antineoplastic; topoisomerase I inhibitor

>  <ref>  (1536) 
Cancer Chemother. Pharmacol. (1995), 36(5), 393-403; Oncol. Res. (1993), 5(12), 467-74; Chem. Pharm. Bull. (1991), 39(6), 1446-54

>  <cas#>  (1536) 
136572-09-3

>  <source>  (1536) 
semisynthetic; U-101440

>  <status>  (1536) 
USAN, INN, BAN

>  <tradename>  (1536) 
CAMPTOSAR

>  <SMILES>  (1536) 
CCc1c2Cn3c(cc4c(COC(=O)[C@]4(O)CC)c3=O)-c2nc2ccc(OC(=O)N3CCC(N4CCCCC4)CC3)cc12

>  <standardized_failed>  (1536) 
False

$$$$

     RDKit          2D

 14 15  0  0  0  0  0  0  0  0999 V2000
    4.2417   -1.7042    0.0000 N   0  0  0  0  0  0  0  0  0  0  0  0
    4.7333   -2.3708    0.0000 C   0  0  0  0  0  0  0  0  0  0  0  0
    4.2500   -3.0417    0.0000 N   0  0  0  0  0  0  0  0  0  0  0  0
    3.4583   -1.9667    0.0000 C   0  0  0  0  0  0  0  0  0  0  0  0
    3.4625   -2.7917    0.0000 C   0  0  0  0  0  0  0  0  0  0  0  0
    6.8000   -3.0750    0.0000 C   0  0  0  0  0  0  0  0  0  0  0  0
    7.2042   -2.3583    0.0000 O   0  0  0  0  0  0  0  0  0  0  0  0
    5.5583   -2.3667    0.0000 C   0  0  0  0  0  0  0  0  0  0  0  0
    5.9750   -3.0792    0.0000 C   0  0  0  0  0  0  0  0  0  0  0  0
    7.2167   -3.7833    0.0000 O   0  0  0  0  0  0  0  0  0  0  0  0
    2.7417   -1.5542    0.0000 C   0  0  0  0  0  0  0  0  0  0  0  0
    2.7417   -3.2083    0.0000 C   0  0  0  0  0  0  0  0  0  0  0  0
    2.0292   -1.9667    0.0000 C   0  0  0  0  0  0  0  0  0  0  0  0
    2.0292   -2.7958    0.0000 C   0  0  0  0  0  0  0  0  0  0  0  0
  2  1  2  0
  3  2  1  0
  4  1  1  0
  5  4  2  0
  6  9  1  0
  7  6  2  0
  8  2  1  0
  9  8  1  0
 10  6  1  0
 11  4  1  0
 12  5  1  0
 13 11  2  0
 14 12  2  0
  3  5  1  0
 14 13  1  0
M  END
>  <ID>  (1537) 


>  <MOLENAME>  (1537) 
PROCODAZOLE

>  <therap>  (1537) 
immune stimulant

>  <ref>  (1537) 
Rev Clin Exp 135:539 (1974); 141:51 (1976); Med Klin 181:78 (1976)

>  <cas#>  (1537) 
23249-97-0

>  <source>  (1537) 
synthetic; AL-1241

>  <status>  (1537) 
INN

>  <tradename>  (1537) 
ESTIMULOCEL

>  <SMILES>  (1537) 
O=C(O)CCc1nc2c(cccc2)[nH]1

>  <standardized_failed>  (1537) 
False

$$$$

     RDKit          2D

 22 23  0  0  0  0  0  0  0  0999 V2000
    1.8042   -2.0583    0.0000 C   0  0  0  0  0  0  0  0  0  0  0  0
    2.5167   -1.6417    0.0000 C   0  0  0  0  0  0  0  0  0  0  0  0
    1.8042   -2.8875    0.0000 C   0  0  0  0  0  0  0  0  0  0  0  0
    1.0875   -1.6458    0.0000 C   0  0  0  0  0  0  0  0  0  0  0  0
    3.9458   -1.6375    0.0000 C   0  0  0  0  0  0  0  0  0  0  0  0
    1.0875   -3.3000    0.0000 C   0  0  0  0  0  0  0  0  0  0  0  0
    0.3750   -2.0625    0.0000 C   0  0  0  0  0  0  0  0  0  0  0  0
    0.3750   -2.8875    0.0000 C   0  0  0  0  0  0  0  0  0  0  0  0
    3.2333   -2.0500    0.0000 C   0  0  0  0  0  0  0  0  0  0  0  0
    4.6583   -2.0500    0.0000 C   0  0  0  0  0  0  0  0  0  0  0  0
    5.3708   -1.6333    0.0000 C   0  0  0  0  0  0  0  0  0  0  0  0
    5.3708   -0.8083    0.0000 C   0  0  0  0  0  0  0  0  0  0  0  0
    3.9375   -0.8167    0.0000 C   0  0  0  0  0  0  0  0  0  0  0  0
    4.6500   -0.4000    0.0000 C   0  0  0  0  0  0  0  0  0  0  0  0
    2.5125   -0.8167    0.0000 O   0  0  0  0  0  0  0  0  0  0  0  0
    2.5208   -3.3000    0.0000 Cl  0  0  0  0  0  0  0  0  0  0  0  0
    1.0875   -4.1250    0.0000 Cl  0  0  0  0  0  0  0  0  0  0  0  0
   -0.3375   -1.6500    0.0000 Cl  0  0  0  0  0  0  0  0  0  0  0  0
    6.0875   -2.0458    0.0000 Cl  0  0  0  0  0  0  0  0  0  0  0  0
    1.0833   -0.8208    0.0000 O   0  0  0  0  0  0  0  0  0  0  0  0
    4.6583   -2.8750    0.0000 O   0  0  0  0  0  0  0  0  0  0  0  0
    4.6417    0.4250    0.0000 Cl  0  0  0  0  0  0  0  0  0  0  0  0
  2  1  1  0
  3  1  2  0
  4  1  1  0
  5  9  1  0
  6  3  1  0
  7  4  2  0
  8  6  2  0
  9  2  1  0
 10  5  2  0
 11 10  1  0
 12 14  1  0
 13  5  1  0
 14 13  2  0
 15  2  2  0
 16  3  1  0
 17  6  1  0
 18  7  1  0
 19 11  1  0
 20  4  1  0
 21 10  1  0
 22 14  1  0
  8  7  1  0
 12 11  2  0
M  END
>  <ID>  (1538) 


>  <MOLENAME>  (1538) 
OXYCLOZANIDE

>  <therap>  (1538) 
anthelmintic

>  <ref>  (1538) 
Experientia 1969:883; Br J Pharmac 50:435 (1974)

>  <cas#>  (1538) 
227-92-1

>  <source>  (1538) 
synthetic; ICI-46683

>  <status>  (1538) 
INN, BAN

>  <tradename>  (1538) 
ZANIL

>  <SMILES>  (1538) 
O=C(Cc1c(O)c(Cl)cc(Cl)c1)c1c(Cl)c(Cl)cc(Cl)c1O

>  <standardized_failed>  (1538) 
False

$$$$

     RDKit          2D

 14 14  0  0  0  0  0  0  0  0999 V2000
    7.2667   -3.4292    0.0000 P   0  0  0  0  0  0  0  0  0  0  0  0
    4.9667   -3.4042    0.0000 C   0  0  0  0  0  0  0  0  0  0  0  0
    5.6875   -3.8167    0.0000 C   0  0  0  0  0  0  0  0  0  0  0  0
    4.9667   -2.5792    0.0000 C   0  0  0  0  0  0  0  0  0  0  0  0
    6.4000   -3.4000    0.0000 O   0  0  0  0  0  0  0  0  0  0  0  0
    7.2667   -2.6042    0.0000 O   0  0  0  0  0  0  0  0  0  0  0  0
    4.2542   -2.1667    0.0000 O   0  0  0  0  0  0  0  0  0  0  0  0
    7.5625   -4.0667    0.0000 O   0  0  0  0  0  0  0  0  0  0  0  0
    8.1250   -3.3167    0.0000 O   0  0  0  0  0  0  0  0  0  0  0  0
    5.6792   -2.1667    0.0000 O   0  0  0  0  0  0  0  0  0  0  0  0
    4.2542   -3.8167    0.0000 C   0  0  0  0  0  0  0  0  0  0  0  0
    5.6875   -4.6417    0.0000 C   0  0  0  0  0  0  0  0  0  0  0  0
    4.2542   -4.6417    0.0000 C   0  0  0  0  0  0  0  0  0  0  0  0
    4.9667   -5.0542    0.0000 C   0  0  0  0  0  0  0  0  0  0  0  0
  2  3  2  0
  3  5  1  0
  4  2  1  0
  5  1  1  0
  6  1  2  0
  7  4  2  0
  8  1  1  0
  9  1  1  0
 10  4  1  0
 11  2  1  0
 12  3  1  0
 13 14  1  0
 14 12  2  0
 11 13  2  0
M  END
>  <ID>  (1539) 


>  <MOLENAME>  (1539) 
FOSFOSAL

>  <therap>  (1539) 
analgesic, antiinflammatory

>  <ref>  (1539) 
Arzneim Forsch 30:1091, 1098 (1980); Clin Ther 4:121 (1981); Med Clin 76:18 (1981)

>  <cas#>  (1539) 
6064-83-1

>  <source>  (1539) 
synthetic; UR-1521

>  <status>  (1539) 
INN

>  <tradename>  (1539) 
DISDOLEN

>  <SMILES>  (1539) 
O=C(O)c1c(OP(=O)(O)O)cccc1

>  <standardized_failed>  (1539) 
False

$$$$

     RDKit          2D

 17 18  0  0  0  0  0  0  0  0999 V2000
    2.8417   -2.6167    0.0000 N   0  0  0  0  0  0  0  0  0  0  0  0
    2.8292   -3.4875    0.0000 C   0  0  0  0  0  0  0  0  0  0  0  0
    3.5625   -2.2042    0.0000 C   0  0  0  0  0  0  0  0  0  0  0  0
    3.5625   -1.3750    0.0000 N   0  0  0  0  0  0  0  0  0  0  0  0
    2.1292   -2.2042    0.0000 C   0  0  0  0  0  0  0  0  0  0  0  0
    3.4917   -3.9792    0.0000 C   0  0  0  0  0  0  0  0  0  0  0  0
    2.1292   -1.3750    0.0000 C   0  0  0  0  0  0  0  0  0  0  0  0
    2.8417   -0.9625    0.0000 C   0  0  0  0  0  0  0  0  0  0  0  0
    2.1542   -3.9667    0.0000 O   0  0  0  0  0  0  0  0  0  0  0  0
    3.2292   -4.7542    0.0000 C   0  0  0  0  0  0  0  0  0  0  0  0
    2.4167   -4.7625    0.0000 C   0  0  0  0  0  0  0  0  0  0  0  0
    4.2792   -2.6250    0.0000 O   0  0  0  0  0  0  0  0  0  0  0  0
    2.8417   -0.1375    0.0000 O   0  0  0  0  0  0  0  0  0  0  0  0
    1.4167   -0.9625    0.0000 F   0  0  0  0  0  0  0  0  0  0  0  0
    4.2792   -3.7292    0.0000 O   0  0  0  0  0  0  0  0  0  0  0  0
    3.7167   -5.4292    0.0000 O   0  0  0  0  0  0  0  0  0  0  0  0
    1.9417   -5.4417    0.0000 C   0  0  0  0  0  0  0  0  0  0  0  0
  2  1  1  0
  3  1  1  0
  4  3  1  0
  5  1  1  0
  6  2  1  0
  7  5  2  0
  8  7  1  0
  9  2  1  0
 10  6  1  0
 11  9  1  0
 12  3  2  0
 13  8  2  0
 14  7  1  0
 15  6  1  0
 10 16  1  6
 11 17  1  1
  8  4  1  0
 11 10  1  0
M  END
>  <ID>  (1540) 


>  <MOLENAME>  (1540) 
DOXIFLURIDINE

>  <therap>  (1540) 
antineoplastic, pyrimidine antimetabolite

>  <ref>  (1540) 
Cancer Chemother Pharmacol 15:161 (1985); Acta Neurol Scand 73:449 (1986); Jpn J Clin Oncol 38:176 (2008)

>  <cas#>  (1540) 
3094-09-5

>  <source>  (1540) 
synthetic; Ro-21-9738

>  <status>  (1540) 
INN, JAN

>  <tradename>  (1540) 
FURTULON

>  <SMILES>  (1540) 
C[C@H]1OC(n2cc(F)c(=O)[nH]c2=O)C(O)[C@@H]1O

>  <standardized_failed>  (1540) 
False

$$$$

     RDKit          2D

 22 25  0  0  0  0  0  0  0  0999 V2000
    0.3792   -3.6167    0.0000 C   0  0  0  0  0  0  0  0  0  0  0  0
    0.3792   -4.4417    0.0000 C   0  0  0  0  0  0  0  0  0  0  0  0
    2.5292   -2.4000    0.0000 C   0  0  0  0  0  0  0  0  0  0  0  0
    1.0917   -3.2042    0.0000 C   0  0  0  0  0  0  0  0  0  0  0  0
   -0.3333   -4.8542    0.0000 C   0  0  0  0  0  0  0  0  0  0  0  0
    2.5250   -3.2250    0.0000 C   0  0  0  0  0  0  0  0  0  0  0  0
    1.8042   -3.6292    0.0000 C   0  0  0  0  0  0  0  0  0  0  0  0
    3.3167   -2.1542    0.0000 C   0  0  0  0  0  0  0  0  0  0  0  0
    1.0917   -4.8542    0.0000 C   0  0  0  0  0  0  0  0  0  0  0  0
   -1.0375   -4.4417    0.0000 C   0  0  0  0  0  0  0  0  0  0  0  0
    1.8250   -1.9792    0.0000 C   0  0  0  0  0  0  0  0  0  0  0  0
   -0.3333   -3.2042    0.0000 C   0  0  0  0  0  0  0  0  0  0  0  0
    1.1000   -2.3792    0.0000 C   0  0  0  0  0  0  0  0  0  0  0  0
    1.8042   -4.4417    0.0000 C   0  0  0  0  0  0  0  0  0  0  0  0
    3.3042   -3.4875    0.0000 C   0  0  0  0  0  0  0  0  0  0  0  0
   -1.0375   -3.6167    0.0000 C   0  0  0  0  0  0  0  0  0  0  0  0
    3.7917   -2.8250    0.0000 C   0  0  0  0  0  0  0  0  0  0  0  0
    3.5792   -1.3750    0.0000 O   0  0  0  0  0  0  0  0  0  0  0  0
   -1.7583   -4.8542    0.0000 O   0  0  0  0  0  0  0  0  0  0  0  0
    0.3792   -2.7917    0.0000 C   0  0  0  0  0  0  0  0  0  0  0  0
    2.5292   -1.5750    0.0000 C   0  0  0  0  0  0  0  0  0  0  0  0
   -0.3250   -5.6792    0.0000 C   0  0  0  0  0  0  0  0  0  0  0  0
  2  1  1  0
  3 11  1  0
  4  1  1  0
  5  2  2  0
  6  7  1  0
  7  4  1  0
  8  3  1  0
  9  2  1  0
 10 16  1  0
 11 13  1  0
 12  1  1  0
 13  4  1  0
 14  7  1  0
 15  6  1  0
 16 12  1  0
 17 15  1  0
 18  8  2  0
 19 10  2  0
  1 20  1  1
  3 21  1  1
 22  5  1  0
  5 10  1  0
 14  9  1  0
  3  6  1  0
  8 17  1  0
M  END
>  <ID>  (1541) 


>  <MOLENAME>  (1541) 
FORMESTANE

>  <therap>  (1541) 
antineoplastic, aromatase inhibitor

>  <ref>  (1541) 
Steroids 65: 171 (2000)

>  <cas#>  (1541) 
566-48-3

>  <source>  (1541) 
synthetic; CGP-32349

>  <status>  (1541) 
INN, BAN

>  <tradename>  (1541) 
nan

>  <SMILES>  (1541) 
CC1=C2CCC3C4CCC(=O)[C@@]4(C)CCC3[C@@]2(C)CCC1=O

>  <standardized_failed>  (1541) 
False

$$$$

     RDKit          2D

 26 28  0  0  0  0  0  0  0  0999 V2000
    3.7375   -4.2167    0.0000 C   0  0  0  0  0  0  0  0  0  0  0  0
    3.3167   -3.5125    0.0000 C   0  0  0  0  0  0  0  0  0  0  0  0
    4.1500   -3.5042    0.0000 C   0  0  0  0  0  0  0  0  0  0  0  0
    4.8625   -3.0875    0.0000 C   0  0  0  0  0  0  0  0  0  0  0  0
    2.6042   -3.1000    0.0000 C   0  0  0  0  0  0  0  0  0  0  0  0
    5.5792   -3.5000    0.0000 O   0  0  0  0  0  0  0  0  0  0  0  0
    1.8917   -3.5125    0.0000 C   0  0  0  0  0  0  0  0  0  0  0  0
    4.8542   -2.2625    0.0000 O   0  0  0  0  0  0  0  0  0  0  0  0
    9.1417   -3.0667    0.0000 O   0  0  0  0  0  0  0  0  0  0  0  0
    8.4292   -3.4792    0.0000 C   0  0  0  0  0  0  0  0  0  0  0  0
    4.1417   -4.9292    0.0000 C   0  0  0  0  0  0  0  0  0  0  0  0
    3.3167   -4.9292    0.0000 C   0  0  0  0  0  0  0  0  0  0  0  0
    7.7125   -3.0792    0.0000 C   0  0  0  0  0  0  0  0  0  0  0  0
    6.2917   -3.0792    0.0000 C   0  0  0  0  0  0  0  0  0  0  0  0
    7.0042   -3.4917    0.0000 C   0  0  0  0  0  0  0  0  0  0  0  0
    9.8542   -3.4792    0.0000 C   0  0  0  0  0  0  0  0  0  0  0  0
    7.7167   -4.7292    0.0000 C   0  0  0  0  0  0  0  0  0  0  0  0
    8.4292   -4.3125    0.0000 C   0  0  0  0  0  0  0  0  0  0  0  0
    1.1792   -3.1000    0.0000 C   0  0  0  0  0  0  0  0  0  0  0  0
    1.8917   -4.3375    0.0000 C   0  0  0  0  0  0  0  0  0  0  0  0
    7.0042   -4.3167    0.0000 C   0  0  0  0  0  0  0  0  0  0  0  0
    9.8542   -4.3042    0.0000 C   0  0  0  0  0  0  0  0  0  0  0  0
   10.5625   -3.0625    0.0000 C   0  0  0  0  0  0  0  0  0  0  0  0
   11.2792   -3.4667    0.0000 C   0  0  0  0  0  0  0  0  0  0  0  0
   10.5750   -4.7125    0.0000 C   0  0  0  0  0  0  0  0  0  0  0  0
   11.2875   -4.2917    0.0000 C   0  0  0  0  0  0  0  0  0  0  0  0
  2  1  1  0
  3  1  1  0
  4  3  1  0
  5  2  1  0
  6  4  1  0
  7  5  2  0
  8  4  2  0
  9 10  1  0
 10 13  2  0
 11  1  1  0
 12  1  1  0
 13 15  1  0
 14  6  1  0
 15 14  1  0
 16  9  1  0
 17 21  1  0
 18 17  2  0
 19  7  1  0
 20  7  1  0
 21 15  2  0
 22 16  2  0
 23 16  1  0
 24 23  2  0
 25 22  1  0
 26 24  1  0
  2  3  1  0
 10 18  1  0
 25 26  2  0
M  END
>  <ID>  (1542) 


>  <MOLENAME>  (1542) 
PHENOTHRIN

>  <therap>  (1542) 
ectoparasiticide

>  <ref>  (1542) 
Lancet 344:1724 (1994); J Pesticide Reform 23:(2):10 (2003)

>  <cas#>  (1542) 
26002-80-2

>  <source>  (1542) 
synthetic; S-2539-F

>  <status>  (1542) 
INN, BAN

>  <tradename>  (1542) 
SUMITHRIN

>  <SMILES>  (1542) 
CC(C)=CC1C(C(=O)OCc2cccc(Oc3ccccc3)c2)C1(C)C

>  <standardized_failed>  (1542) 
False

$$$$

     RDKit          2D

 24 25  0  0  0  0  0  0  0  0999 V2000
   10.4542   -4.1750    0.0000 C   0  0  0  0  0  0  0  0  0  0  0  0
   10.4583   -4.9917    0.0000 C   0  0  0  0  0  0  0  0  0  0  0  0
    9.7500   -3.7667    0.0000 C   0  0  0  0  0  0  0  0  0  0  0  0
    9.7458   -5.4083    0.0000 C   0  0  0  0  0  0  0  0  0  0  0  0
    9.0375   -4.1792    0.0000 C   0  0  0  0  0  0  0  0  0  0  0  0
    9.0333   -4.9958    0.0000 C   0  0  0  0  0  0  0  0  0  0  0  0
   11.2375   -5.2417    0.0000 O   0  0  0  0  0  0  0  0  0  0  0  0
   11.2292   -3.9208    0.0000 O   0  0  0  0  0  0  0  0  0  0  0  0
   11.7125   -4.5792    0.0000 C   0  0  0  0  0  0  0  0  0  0  0  0
    8.3250   -3.7667    0.0000 C   0  0  0  0  0  0  0  0  0  0  0  0
    7.6125   -4.1792    0.0000 O   0  0  0  0  0  0  0  0  0  0  0  0
    8.3208   -5.4083    0.0000 C   0  0  0  0  0  0  0  0  0  0  0  0
    3.3375   -4.1792    0.0000 O   0  0  0  0  0  0  0  0  0  0  0  0
    5.4750   -3.7667    0.0000 O   0  0  0  0  0  0  0  0  0  0  0  0
    4.7625   -4.1792    0.0000 C   0  0  0  0  0  0  0  0  0  0  0  0
    4.0500   -3.7667    0.0000 C   0  0  0  0  0  0  0  0  0  0  0  0
    6.1875   -4.1792    0.0000 C   0  0  0  0  0  0  0  0  0  0  0  0
    6.9000   -3.7667    0.0000 C   0  0  0  0  0  0  0  0  0  0  0  0
    2.6250   -3.7667    0.0000 C   0  0  0  0  0  0  0  0  0  0  0  0
    7.6042   -4.9958    0.0000 C   0  0  0  0  0  0  0  0  0  0  0  0
    1.9125   -4.1792    0.0000 C   0  0  0  0  0  0  0  0  0  0  0  0
    1.2000   -3.7667    0.0000 C   0  0  0  0  0  0  0  0  0  0  0  0
    0.4875   -4.1792    0.0000 C   0  0  0  0  0  0  0  0  0  0  0  0
    6.8917   -5.4083    0.0000 C   0  0  0  0  0  0  0  0  0  0  0  0
  2  1  1  0
  3  1  2  0
  4  2  2  0
  5  3  1  0
  6  4  1  0
  7  2  1  0
  8  1  1  0
  9  8  1  0
 10  5  1  0
 11 10  1  0
 12  6  1  0
 13 16  1  0
 14 17  1  0
 15 14  1  0
 16 15  1  0
 17 18  1  0
 18 11  1  0
 19 13  1  0
 20 12  1  0
 21 19  1  0
 22 21  1  0
 23 22  1  0
 24 20  1  0
  9  7  1  0
  6  5  2  0
M  END
>  <ID>  (1543) 


>  <MOLENAME>  (1543) 
PIPERONYL BUTOXIDE

>  <therap>  (1543) 
insecticide synergist

>  <ref>  (1543) 
Toxicol Appl Pharmacol 14:515 (1969); IARC Monographs 30:183 (1983)

>  <cas#>  (1543) 
51-03-6

>  <source>  (1543) 
synthetic; ENT-14250

>  <status>  (1543) 
BAN

>  <tradename>  (1543) 
BUTACIDE

>  <SMILES>  (1543) 
CCCCOCCOCCOCc1c(CCC)cc2OCOc2c1

>  <standardized_failed>  (1543) 
False

$$$$

     RDKit          2D

 11 11  0  0  0  0  0  0  0  0999 V2000
    4.5208   -2.3625    0.0000 N   0  0  0  0  0  0  0  0  0  0  0  0
    5.2375   -1.1208    0.0000 C   0  0  0  0  0  0  0  0  0  0  0  0
    5.2375   -1.9500    0.0000 C   0  0  0  0  0  0  0  0  0  0  0  0
    4.5208   -0.7083    0.0000 N   0  0  0  0  0  0  0  0  0  0  0  0
    5.9500   -0.7042    0.0000 C   0  0  0  0  0  0  0  0  0  0  0  0
    3.8083   -1.9500    0.0000 C   0  0  0  0  0  0  0  0  0  0  0  0
    4.5208   -3.1875    0.0000 O   0  0  0  0  0  0  0  0  0  0  0  0
    3.8083   -1.1250    0.0000 C   0  0  0  0  0  0  0  0  0  0  0  0
    5.9458    0.1208    0.0000 O   0  0  0  0  0  0  0  0  0  0  0  0
    6.6667   -1.1125    0.0000 O   0  0  0  0  0  0  0  0  0  0  0  0
    3.0917   -2.3625    0.0000 C   0  0  0  0  0  0  0  0  0  0  0  0
  2  3  1  0
  3  1  2  0
  4  8  1  0
  5  2  1  0
  6  1  1  0
  7  1  1  0
  8  6  2  0
  9  5  2  0
 10  5  1  0
 11  6  1  0
  4  2  2  0
M  CHG  2   1   1   7  -1
M  END
>  <ID>  (1544) 


>  <MOLENAME>  (1544) 
ACIPIMOX

>  <therap>  (1544) 
antilipemic

>  <ref>  (1544) 
Eur J Med Chem 15:157 (1980); Clin Pharmacol Ther 28:790 (1980); Arzneim-Forsch 33:1525 (1983)

>  <cas#>  (1544) 
51037-30-0

>  <source>  (1544) 
synthetic

>  <status>  (1544) 
INN, BAN

>  <tradename>  (1544) 
OLBEMOX

>  <SMILES>  (1544) 
Cc1cnc(C(=O)O)c[n+]1[O-]

>  <standardized_failed>  (1544) 
False

$$$$

     RDKit          2D

 14 14  0  0  0  0  0  0  0  0999 V2000
    4.8583   -3.1083    0.0000 S   0  0  0  0  0  0  0  0  0  0  0  0
    5.5667   -3.5167    0.0000 N   0  0  0  0  0  0  0  0  0  0  0  0
    6.2792   -3.1042    0.0000 C   0  0  0  0  0  0  0  0  0  0  0  0
    4.1458   -3.5250    0.0000 C   0  0  0  0  0  0  0  0  0  0  0  0
    4.2667   -2.5167    0.0000 O   0  0  0  0  0  0  0  0  0  0  0  0
    5.4417   -2.5167    0.0000 O   0  0  0  0  0  0  0  0  0  0  0  0
    6.2792   -2.2792    0.0000 O   0  0  0  0  0  0  0  0  0  0  0  0
    4.1458   -4.3542    0.0000 C   0  0  0  0  0  0  0  0  0  0  0  0
    3.4292   -3.1125    0.0000 C   0  0  0  0  0  0  0  0  0  0  0  0
    6.9917   -3.5125    0.0000 N   0  0  0  0  0  0  0  0  0  0  0  0
    2.7167   -4.3542    0.0000 C   0  0  0  0  0  0  0  0  0  0  0  0
    2.0000   -4.7667    0.0000 N   0  0  0  0  0  0  0  0  0  0  0  0
    3.4292   -4.7667    0.0000 C   0  0  0  0  0  0  0  0  0  0  0  0
    2.7167   -3.5250    0.0000 C   0  0  0  0  0  0  0  0  0  0  0  0
  2  1  1  0
  3  2  1  0
  4  1  1  0
  5  1  2  0
  6  1  2  0
  7  3  2  0
  8  4  2  0
  9  4  1  0
 10  3  1  0
 11 14  1  0
 12 11  1  0
 13  8  1  0
 14  9  2  0
 13 11  2  0
M  END
>  <ID>  (1545) 


>  <MOLENAME>  (1545) 
SULFACARBAMIDE

>  <therap>  (1545) 
antibacterial

>  <ref>  (1545) 
Antimicrob Agents Chemother 19:82 (1981)

>  <cas#>  (1545) 
547-44-4

>  <source>  (1545) 
synthetic

>  <status>  (1545) 
INN, BAN

>  <tradename>  (1545) 
SULFAUREA

>  <SMILES>  (1545) 
NC(=O)NS(=O)(=O)c1ccc(N)cc1

>  <standardized_failed>  (1545) 
False

$$$$

     RDKit          2D

 12 12  0  0  0  0  0  0  0  0999 V2000
    6.2125   -5.9042    0.0000 C   0  0  0  0  0  0  0  0  0  0  0  0
    6.2125   -5.0792    0.0000 C   0  0  0  0  0  0  0  0  0  0  0  0
    5.5000   -6.3167    0.0000 C   0  0  0  0  0  0  0  0  0  0  0  0
    5.5000   -4.6667    0.0000 N   0  0  0  0  0  0  0  0  0  0  0  0
    4.7917   -5.9042    0.0000 C   0  0  0  0  0  0  0  0  0  0  0  0
    4.7917   -5.0792    0.0000 C   0  0  0  0  0  0  0  0  0  0  0  0
    6.9292   -4.6667    0.0000 O   0  0  0  0  0  0  0  0  0  0  0  0
    5.5000   -7.1417    0.0000 O   0  0  0  0  0  0  0  0  0  0  0  0
    6.9292   -6.3167    0.0000 C   0  0  0  0  0  0  0  0  0  0  0  0
    7.0042   -5.6917    0.0000 C   0  0  0  0  0  0  0  0  0  0  0  0
    6.9250   -7.1417    0.0000 C   0  0  0  0  0  0  0  0  0  0  0  0
    7.5917   -6.2667    0.0000 C   0  0  0  0  0  0  0  0  0  0  0  0
  2  1  1  0
  3  1  1  0
  4  2  1  0
  5  3  1  0
  6  5  2  0
  7  2  2  0
  8  3  2  0
  9  1  1  0
 10  1  1  0
 11  9  1  0
 12 10  1  0
  4  6  1  0
M  END
>  <ID>  (1546) 


>  <MOLENAME>  (1546) 
PYRITHYLDIONE

>  <therap>  (1546) 
hypnotic, sedative

>  <ref>  (1546) 
JAMA 140:121 (1949); Eur J Clin Pharmacol 55:761 (2000)

>  <cas#>  (1546) 
77-04-3

>  <source>  (1546) 
synthetic

>  <status>  (1546) 
INN

>  <tradename>  (1546) 
PERSEDON

>  <SMILES>  (1546) 
CCC1(CC)C(=O)C=CNC1=O

>  <standardized_failed>  (1546) 
False

$$$$

     RDKit          2D

 21 20  0  0  0  0  0  0  0  0999 V2000
    5.8167   -4.9667    0.0000 C   0  0  0  0  0  0  0  0  0  0  0  0
    5.0917   -5.3667    0.0000 N   0  0  0  0  0  0  0  0  0  0  0  0
    5.8625   -4.1500    0.0000 C   0  0  0  0  0  0  0  0  0  0  0  0
    6.5417   -3.6917    0.0000 C   0  0  0  0  0  0  0  0  0  0  0  0
    5.0875   -3.7000    0.0000 N   0  0  0  0  0  0  0  0  0  0  0  0
    4.2917   -6.4500    0.0000 C   0  0  0  0  0  0  0  0  0  0  0  0
    6.4917   -2.8792    0.0000 C   0  0  0  0  0  0  0  0  0  0  0  0
    5.0792   -6.2167    0.0000 C   0  0  0  0  0  0  0  0  0  0  0  0
    4.3750   -3.2875    0.0000 C   0  0  0  0  0  0  0  0  0  0  0  0
    6.9917   -7.1417    0.0000 C   0  0  0  0  0  0  0  0  0  0  0  0
    6.5292   -5.3667    0.0000 O   0  0  0  0  0  0  0  0  0  0  0  0
    4.2500   -7.2625    0.0000 O   0  0  0  0  0  0  0  0  0  0  0  0
    7.1875   -2.4042    0.0000 O   0  0  0  0  0  0  0  0  0  0  0  0
    4.3750   -2.4625    0.0000 O   0  0  0  0  0  0  0  0  0  0  0  0
    6.6667   -7.9167    0.0000 O   0  0  0  0  0  0  0  0  0  0  0  0
    5.7292   -6.7125    0.0000 C   0  0  0  0  0  0  0  0  0  0  0  0
    6.5167   -6.4792    0.0000 C   0  0  0  0  0  0  0  0  0  0  0  0
    3.6500   -5.9375    0.0000 O   0  0  0  0  0  0  0  0  0  0  0  0
    5.8250   -2.5000    0.0000 O   0  0  0  0  0  0  0  0  0  0  0  0
    7.8125   -7.0500    0.0000 O   0  0  0  0  0  0  0  0  0  0  0  0
    3.6625   -3.7000    0.0000 C   0  0  0  0  0  0  0  0  0  0  0  0
  2  1  1  0
  3  1  1  0
  3  4  1  1
  5  3  1  0
  6  8  1  0
  7  4  1  0
  8  2  1  0
  9  5  1  0
 10 17  1  0
 11  1  2  0
 12  6  2  0
 13  7  2  0
 14  9  2  0
 15 10  2  0
  8 16  1  1
 17 16  1  0
 18  6  1  0
 19  7  1  0
 20 10  1  0
 21  9  1  0
M  END
>  <ID>  (1547) 


>  <MOLENAME>  (1547) 
SPAGLUMIC ACID

>  <therap>  (1547) 
neurotransmitter; mGluR3 receptors

>  <ref>  (1547) 
PNAS 80:1116 (1983); Eur J Pharmacol 98:193 (1984); J Med Chem 39:619 (1996); J Pharmacol Exp Ther 295:16 (2000); J Neurochem 69:174 (1997); 75:443 (2000)

>  <cas#>  (1547) 
4910-46-7

>  <source>  (1547) 
brain tissue

>  <status>  (1547) 
INN

>  <tradename>  (1547) 
nan

>  <SMILES>  (1547) 
CC(=O)N[C@@H](CC(=O)O)C(=O)N[C@@H](CCC(=O)O)C(=O)O

>  <standardized_failed>  (1547) 
False

$$$$

     RDKit          2D

 23 25  0  0  0  0  0  0  0  0999 V2000
    2.3667   -4.8292    0.0000 C   0  0  0  0  0  0  0  0  0  0  0  0
    2.4167   -4.0042    0.0000 C   0  0  0  0  0  0  0  0  0  0  0  0
    1.1375   -4.3417    0.0000 N   0  0  0  0  0  0  0  0  0  0  0  0
    1.6542   -3.7042    0.0000 N   0  0  0  0  0  0  0  0  0  0  0  0
    1.5750   -5.0375    0.0000 C   0  0  0  0  0  0  0  0  0  0  0  0
    2.9417   -5.4167    0.0000 N   0  0  0  0  0  0  0  0  0  0  0  0
    3.7417   -5.2125    0.0000 C   0  0  0  0  0  0  0  0  0  0  0  0
    4.3167   -5.7917    0.0000 C   0  0  0  0  0  0  0  0  0  0  0  0
    3.1292   -3.5667    0.0000 O   0  0  0  0  0  0  0  0  0  0  0  0
    1.3542   -2.9375    0.0000 C   0  0  0  0  0  0  0  0  0  0  0  0
    3.9542   -4.4250    0.0000 O   0  0  0  0  0  0  0  0  0  0  0  0
    4.6792   -7.1750    0.0000 N   0  0  0  0  0  0  0  0  0  0  0  0
    0.3125   -4.2875    0.0000 C   0  0  0  0  0  0  0  0  0  0  0  0
    1.2667   -5.8042    0.0000 C   0  0  0  0  0  0  0  0  0  0  0  0
    4.1000   -6.5917    0.0000 C   0  0  0  0  0  0  0  0  0  0  0  0
    5.1125   -5.5792    0.0000 C   0  0  0  0  0  0  0  0  0  0  0  0
    5.4792   -6.9542    0.0000 C   0  0  0  0  0  0  0  0  0  0  0  0
    0.5417   -2.8042    0.0000 C   0  0  0  0  0  0  0  0  0  0  0  0
    1.8792   -2.3000    0.0000 C   0  0  0  0  0  0  0  0  0  0  0  0
    5.6917   -6.1667    0.0000 C   0  0  0  0  0  0  0  0  0  0  0  0
    0.2417   -2.0292    0.0000 C   0  0  0  0  0  0  0  0  0  0  0  0
    1.5875   -1.5250    0.0000 C   0  0  0  0  0  0  0  0  0  0  0  0
    0.7667   -1.3917    0.0000 C   0  0  0  0  0  0  0  0  0  0  0  0
  2  1  1  0
  3  5  1  0
  4  2  1  0
  5  1  2  0
  6  1  1  0
  7  6  1  0
  8  7  1  0
  9  2  2  0
 10  4  1  0
 11  7  2  0
 12 15  2  0
 13  3  1  0
 14  5  1  0
 15  8  1  0
 16  8  2  0
 17 20  2  0
 18 10  2  0
 19 10  1  0
 20 16  1  0
 21 18  1  0
 22 19  2  0
 23 22  1  0
  4  3  1  0
 12 17  1  0
 21 23  2  0
M  END
>  <ID>  (1548) 


>  <MOLENAME>  (1548) 
NIFENAZONE

>  <therap>  (1548) 
analgesic, antiinflammatory

>  <ref>  (1548) 
Pharmazie (1957), 12, 396-401; Monatsh. Chem. (1957), 88, 330-5.

>  <cas#>  (1548) 
2139-47-1

>  <source>  (1548) 
synthetic

>  <status>  (1548) 
INN, BAN

>  <tradename>  (1548) 
nan

>  <SMILES>  (1548) 
Cc1c(NC(=O)c2cccnc2)c(=O)n(-c2ccccc2)n1C

>  <standardized_failed>  (1548) 
False

$$$$

     RDKit          2D

 23 24  0  0  0  0  0  0  0  0999 V2000
    3.7542   -2.2875    0.0000 C   0  0  0  0  0  0  0  0  0  0  0  0
    5.1750   -1.4542    0.0000 C   0  0  0  0  0  0  0  0  0  0  0  0
    3.7542   -3.1125    0.0000 C   0  0  0  0  0  0  0  0  0  0  0  0
    5.8917   -1.8667    0.0000 C   0  0  0  0  0  0  0  0  0  0  0  0
    6.6042   -1.4500    0.0000 C   0  0  0  0  0  0  0  0  0  0  0  0
    3.0292   -3.5250    0.0000 C   0  0  0  0  0  0  0  0  0  0  0  0
    3.0292   -1.8708    0.0000 O   0  0  0  0  0  0  0  0  0  0  0  0
    4.4667   -1.8708    0.0000 O   0  0  0  0  0  0  0  0  0  0  0  0
    5.8833   -0.2167    0.0000 O   0  0  0  0  0  0  0  0  0  0  0  0
    6.6042   -0.6250    0.0000 C   0  0  0  0  0  0  0  0  0  0  0  0
    2.3125   -3.1125    0.0000 C   0  0  0  0  0  0  0  0  0  0  0  0
    5.1708   -0.6292    0.0000 C   0  0  0  0  0  0  0  0  0  0  0  0
    2.3125   -2.2875    0.0000 C   0  0  0  0  0  0  0  0  0  0  0  0
    4.4667   -3.5250    0.0000 O   0  0  0  0  0  0  0  0  0  0  0  0
    7.3208   -1.8625    0.0000 O   0  0  0  0  0  0  0  0  0  0  0  0
    5.8917   -2.6917    0.0000 O   0  0  0  0  0  0  0  0  0  0  0  0
    3.0292   -4.3542    0.0000 O   0  0  0  0  0  0  0  0  0  0  0  0
    1.6000   -3.5250    0.0000 O   0  0  0  0  0  0  0  0  0  0  0  0
    7.3167   -0.2083    0.0000 O   0  0  0  0  0  0  0  0  0  0  0  0
    4.4583   -0.2208    0.0000 C   0  0  0  0  0  0  0  0  0  0  0  0
    1.6000   -1.8708    0.0000 C   0  0  0  0  0  0  0  0  0  0  0  0
    0.9667   -2.4042    0.0000 O   0  0  0  0  0  0  0  0  0  0  0  0
    3.8292   -0.7542    0.0000 O   0  0  0  0  0  0  0  0  0  0  0  0
  2  8  1  6
  3  1  1  0
  4  2  1  0
  5  4  1  0
  6  3  1  0
  7  1  1  0
  1  8  1  6
  9 12  1  0
 10  9  1  0
 11  6  1  0
 12  2  1  0
 13  7  1  0
  3 14  1  6
  5 15  1  6
  4 16  1  1
  6 17  1  1
 11 18  1  6
 10 19  1  1
 12 20  1  1
 13 21  1  1
 22 21  1  0
 23 20  1  0
 13 11  1  0
  5 10  1  0
M  END
>  <ID>  (1549) 


>  <MOLENAME>  (1549) 
D-(+)-MALTOSE

>  <therap>  (1549) 
nutrient, sweetener

>  <ref>  (1549) 
Infusionstherapie (1990), 17(4), 197-203, ; Nature (1967), 213(5073), 308-9, ; Minerva Med. (1963), 54, 2327-31

>  <cas#>  (1549) 
69-79-4

>  <source>  (1549) 
widespread in nature

>  <status>  (1549) 
NF, JAN

>  <tradename>  (1549) 
MALTOS

>  <SMILES>  (1549) 
OC[C@H]1O[C@H](O[C@@H]2[C@@H](CO)O[C@@H](O)[C@H](O)[C@H]2O)[C@H](O)[C@@H](O)[C@@H]1O

>  <standardized_failed>  (1549) 
False

$$$$

     RDKit          2D

  6  5  0  0  0  0  0  0  0  0999 V2000
    0.7375   -1.0875    0.0000 C   0  0  0  0  0  0  0  0  0  0  0  0
    1.4500   -0.6750    0.0000 O   0  0  0  0  0  0  0  0  0  0  0  0
    0.0250   -0.6792    0.0000 C   0  0  0  0  0  0  0  0  0  0  0  0
    0.1500   -1.6667    0.0000 C   0  0  0  0  0  0  0  0  0  0  0  0
    1.3167   -1.6667    0.0000 C   0  0  0  0  0  0  0  0  0  0  0  0
   -0.6875   -1.0917    0.0000 C   0  0  0  0  0  0  0  0  0  0  0  0
  2  1  1  0
  3  1  1  0
  4  1  1  0
  5  1  1  0
  6  3  1  0
M  END
>  <ID>  (1550) 


>  <MOLENAME>  (1550) 
AMYLENE HYDRATE

>  <therap>  (1550) 
hypnotic, antidiabetic

>  <ref>  (1550) 
Am J Med Sci 114:459 (1897)

>  <cas#>  (1550) 
75-85-4

>  <source>  (1550) 
synthetic

>  <status>  (1550) 
NF

>  <tradename>  (1550) 
nan

>  <SMILES>  (1550) 
CCC(C)(C)O

>  <standardized_failed>  (1550) 
False

$$$$

     RDKit          2D

  6  5  0  0  0  0  0  0  0  0999 V2000
    3.1167   -3.3625    0.0000 N   0  0  0  0  0  0  0  0  0  0  0  0
    5.2542   -3.7750    0.0000 S   0  0  0  0  0  0  0  0  0  0  0  0
    3.8292   -3.7750    0.0000 C   0  0  0  0  0  0  0  0  0  0  0  0
    4.5417   -3.3625    0.0000 C   0  0  0  0  0  0  0  0  0  0  0  0
    2.4042   -3.7750    0.0000 C   0  0  0  0  0  0  0  0  0  0  0  0
    3.1167   -2.5375    0.0000 C   0  0  0  0  0  0  0  0  0  0  0  0
  2  4  1  0
  3  1  1  0
  4  3  1  0
  5  1  1  0
  6  1  1  0
M  END
>  <ID>  (1551) 


>  <MOLENAME>  (1551) 
CAPTAMINE

>  <therap>  (1551) 
depigmentor

>  <ref>  (1551) 
Lancet, 1:588 (1974); 1:536 (1976); 2:109 (1976)

>  <cas#>  (1551) 
108-02-1

>  <source>  (1551) 
synthetic; NSC-45463

>  <status>  (1551) 
USAN, INN

>  <tradename>  (1551) 
nan

>  <SMILES>  (1551) 
CN(C)CCS

>  <standardized_failed>  (1551) 
False

$$$$

     RDKit          2D

 11 12  0  0  0  0  0  0  0  0999 V2000
    4.3750   -1.9542    0.0000 O   0  0  0  0  0  0  0  0  0  0  0  0
    5.0917   -2.3625    0.0000 C   0  0  0  0  0  0  0  0  0  0  0  0
    4.3792   -3.6042    0.0000 C   0  0  0  0  0  0  0  0  0  0  0  0
    3.6667   -2.3667    0.0000 C   0  0  0  0  0  0  0  0  0  0  0  0
    5.0917   -3.1917    0.0000 C   0  0  0  0  0  0  0  0  0  0  0  0
    3.6667   -3.1917    0.0000 C   0  0  0  0  0  0  0  0  0  0  0  0
    5.8042   -1.9417    0.0000 O   0  0  0  0  0  0  0  0  0  0  0  0
    2.9500   -1.9542    0.0000 C   0  0  0  0  0  0  0  0  0  0  0  0
    2.9500   -3.6125    0.0000 C   0  0  0  0  0  0  0  0  0  0  0  0
    2.2375   -2.3750    0.0000 C   0  0  0  0  0  0  0  0  0  0  0  0
    2.2375   -3.2000    0.0000 C   0  0  0  0  0  0  0  0  0  0  0  0
  2  1  1  0
  3  6  1  0
  4  1  1  0
  5  2  1  0
  6  4  2  0
  7  2  2  0
  8  4  1  0
  9  6  1  0
 10  8  2  0
 11 10  1  0
  5  3  2  0
  9 11  2  0
M  END
>  <ID>  (1552) 


>  <MOLENAME>  (1552) 
COUMARIN

>  <therap>  (1552) 
antineoplastic, antiinflammatory, antihyperglycaemic

>  <ref>  (1552) 
Prog Chem Org Nat Prod 9: 225 (1952)

>  <cas#>  (1552) 
91-64-5

>  <source>  (1552) 
Coumarouna odorata, tonka beans, lavender oil

>  <status>  (1552) 
NF-X, INN

>  <tradename>  (1552) 
nan

>  <SMILES>  (1552) 
O=c1ccc2c(cccc2)o1

>  <standardized_failed>  (1552) 
False

$$$$

     RDKit          2D

 21 23  0  0  0  0  0  0  0  0999 V2000
    6.6667   -2.2417    0.0000 C   0  0  0  0  0  0  0  0  0  0  0  0
    5.3667   -1.7750    0.0000 C   0  0  0  0  0  0  0  0  0  0  0  0
    6.7042   -0.0917    0.0000 C   0  0  0  0  0  0  0  0  0  0  0  0
    7.3542   -1.3417    0.0000 C   0  0  0  0  0  0  0  0  0  0  0  0
    6.1042   -1.0000    0.0000 N   0  0  0  0  0  0  0  0  0  0  0  0
    4.9792   -1.1250    0.0000 C   0  0  0  0  0  0  0  0  0  0  0  0
    5.3500   -0.4625    0.0000 C   0  0  0  0  0  0  0  0  0  0  0  0
    6.3292   -1.6250    0.0000 C   0  0  0  0  0  0  0  0  0  0  0  0
    6.9167   -1.3125    0.0000 C   0  0  0  0  0  0  0  0  0  0  0  0
    4.9917   -2.4292    0.0000 C   0  0  0  0  0  0  0  0  0  0  0  0
    4.2250   -1.1375    0.0000 C   0  0  0  0  0  0  0  0  0  0  0  0
    4.2417   -2.4375    0.0000 C   0  0  0  0  0  0  0  0  0  0  0  0
    6.9542   -2.9917    0.0000 C   0  0  0  0  0  0  0  0  0  0  0  0
    3.8542   -1.7917    0.0000 C   0  0  0  0  0  0  0  0  0  0  0  0
    8.0750   -0.4375    0.0000 Br  0  0  0  0  0  0  0  0  0  0  0  0
    5.4542   -1.3125    0.0000 C   0  0  0  0  0  0  0  0  0  0  0  0
    8.3250   -1.5000    0.0000 C   0  0  0  0  0  0  0  0  0  0  0  0
    3.8750   -3.0917    0.0000 O   0  0  0  0  0  0  0  0  0  0  0  0
    3.1250   -3.1000    0.0000 C   0  0  0  0  0  0  0  0  0  0  0  0
    7.8542   -3.2417    0.0000 C   0  0  0  0  0  0  0  0  0  0  0  0
    8.5750   -2.4917    0.0000 C   0  0  0  0  0  0  0  0  0  0  0  0
  2  1  1  0
  3  4  1  0
  4  1  1  0
  5  9  1  0
  6  2  2  0
  3  7  1  1
  1  8  1  6
  9  8  1  0
 10  2  1  0
 11  6  1  0
 12 10  2  0
 13  1  1  0
 14 12  1  0
 16  5  1  0
  4 17  1  1
 18 12  1  0
 19 18  1  0
 20 13  1  0
 21 20  1  0
 17 21  1  0
  3  5  1  0
  7  6  1  0
 14 11  2  0
M  END
>  <ID>  (1553) 


>  <MOLENAME>  (1553) 
DEXTROMETHORPHAN HYDROBROMIDE

>  <therap>  (1553) 
antitussive

>  <ref>  (1553) 
Stud. Med. Chem. (1996), 1, 331-353; J. Pharmacol. Exp. Ther. (1957), 120, 399-407; Dtsch. Med. Wochenschr. (1955), 80, 351-3

>  <cas#>  (1553) 
6700-34-1, 125-69-9 [anhydrous], 125-71-3 [dextromethorphan]

>  <source>  (1553) 
synthetic; Ro-01-6794/706

>  <status>  (1553) 
USP, INN, BAN

>  <tradename>  (1553) 
nan

>  <SMILES>  (1553) 
COc1cc2c(cc1)C[C@H]1[C@H]3CCCC[C@@]23CCN1C

>  <standardized_failed>  (1553) 
False

$$$$

     RDKit          2D

 16 15  0  0  0  0  0  0  0  0999 V2000
    2.3000   -1.5417    0.0000 C   0  0  0  0  0  0  0  0  0  0  0  0
    3.5917   -3.0417    0.0000 C   0  0  0  0  0  0  0  0  0  0  0  0
    2.9500   -2.6667    0.0000 S   0  0  0  0  0  0  0  0  0  0  0  0
    2.9500   -1.9167    0.0000 S   0  0  0  0  0  0  0  0  0  0  0  0
    2.3000   -0.7917    0.0000 S   0  0  0  0  0  0  0  0  0  0  0  0
    4.2417   -2.6667    0.0000 S   0  0  0  0  0  0  0  0  0  0  0  0
    1.6542   -1.9167    0.0000 N   0  0  0  0  0  0  0  0  0  0  0  0
    3.5917   -3.7917    0.0000 N   0  0  0  0  0  0  0  0  0  0  0  0
    1.6542   -2.6667    0.0000 C   0  0  0  0  0  0  0  0  0  0  0  0
    1.0042   -1.5417    0.0000 C   0  0  0  0  0  0  0  0  0  0  0  0
    2.9500   -4.1667    0.0000 C   0  0  0  0  0  0  0  0  0  0  0  0
    4.2417   -4.1667    0.0000 C   0  0  0  0  0  0  0  0  0  0  0  0
    2.3000   -3.0417    0.0000 C   0  0  0  0  0  0  0  0  0  0  0  0
    2.3000   -3.7917    0.0000 C   0  0  0  0  0  0  0  0  0  0  0  0
    0.3542   -1.9167    0.0000 C   0  0  0  0  0  0  0  0  0  0  0  0
    4.2417   -4.9167    0.0000 C   0  0  0  0  0  0  0  0  0  0  0  0
  2  3  1  0
  3  4  1  0
  4  1  1  0
  5  1  2  0
  6  2  2  0
  7  1  1  0
  8  2  1  0
  9  7  1  0
 10  7  1  0
 11  8  1  0
 12  8  1  0
 13  9  1  0
 14 11  1  0
 15 10  1  0
 16 12  1  0
M  END
>  <ID>  (1554) 


>  <MOLENAME>  (1554) 
DISULFIRAM

>  <therap>  (1554) 
alcohol antagonist

>  <ref>  (1554) 
J. Clin. Psychopharmacol. (2006), 26(3), 290-302; J. Pharm. Pharmacol. (1951), 3(3), 160-8; Am. J. Med. Sci. (1950), 220(1), 103-9

>  <cas#>  (1554) 
97-77-8

>  <source>  (1554) 
synthetic

>  <status>  (1554) 
USP, INN, BAN, JAN

>  <tradename>  (1554) 
ANTABUSE

>  <SMILES>  (1554) 
CCN(CC)C(=S)SSC(=S)N(CC)CC

>  <standardized_failed>  (1554) 
False

$$$$

     RDKit          2D

 16 17  0  0  0  0  0  0  0  0999 V2000
    7.8292   -8.3042    0.0000 N   0  0  0  0  0  0  0  0  0  0  0  0
    5.5042   -4.6125    0.0000 N   0  0  0  0  0  0  0  0  0  0  0  0
    5.9917   -6.2625    0.0000 C   0  0  0  0  0  0  0  0  0  0  0  0
    5.9917   -7.0875    0.0000 C   0  0  0  0  0  0  0  0  0  0  0  0
    5.2042   -6.0042    0.0000 C   0  0  0  0  0  0  0  0  0  0  0  0
    6.7750   -7.3417    0.0000 C   0  0  0  0  0  0  0  0  0  0  0  0
    5.2042   -7.3417    0.0000 O   0  0  0  0  0  0  0  0  0  0  0  0
    6.7750   -6.0042    0.0000 O   0  0  0  0  0  0  0  0  0  0  0  0
    4.9542   -5.2167    0.0000 O   0  0  0  0  0  0  0  0  0  0  0  0
    7.0292   -8.1292    0.0000 O   0  0  0  0  0  0  0  0  0  0  0  0
    4.7250   -6.6792    0.0000 C   0  0  0  0  0  0  0  0  0  0  0  0
    7.2542   -6.6792    0.0000 C   0  0  0  0  0  0  0  0  0  0  0  0
    8.3875   -7.6917    0.0000 O   0  0  0  0  0  0  0  0  0  0  0  0
    5.2542   -3.8250    0.0000 O   0  0  0  0  0  0  0  0  0  0  0  0
    6.3042   -4.7875    0.0000 O   0  0  0  0  0  0  0  0  0  0  0  0
    8.0875   -9.0917    0.0000 O   0  0  0  0  0  0  0  0  0  0  0  0
  2  9  1  0
  3  4  1  0
  4  6  1  0
  3  5  1  0
  6 10  1  1
  4  7  1  1
  8 12  1  0
  5  9  1  6
 10  1  1  0
 11  7  1  0
 12  6  1  0
 13  1  1  0
 14  2  1  0
 15  2  2  0
 16  1  2  0
  3  8  1  1
  5 11  1  0
M  CHG  4   1   1   2   1  13  -1  14  -1
M  END
>  <ID>  (1555) 


>  <MOLENAME>  (1555) 
ISOSORBIDE DINITRATE

>  <therap>  (1555) 
antianginal

>  <ref>  (1555) 
Am. Heart J. (1985), 110(1 Pt 2), 264-8; Drugs (1982), 23(3), 165-94; Am. J. Cardiol. (1976), 37(2), 263-8

>  <cas#>  (1555) 
87-33-2

>  <source>  (1555) 
semisynthetic

>  <status>  (1555) 
USP, INN, BAN, JAN

>  <tradename>  (1555) 
SORBITRATE

>  <SMILES>  (1555) 
O=[N+]([O-])O[C@H]1CO[C@H]2[C@@H]1OC[C@H]2O[N+](=O)[O-]

>  <standardized_failed>  (1555) 
False

$$$$

     RDKit          2D

 71 72  0  0  0  0  0  0  0  0999 V2000
    3.9792   -0.4750    0.0000 C   0  0  0  0  0  0  0  0  0  0  0  0
    1.2042   -0.3417    0.0000 C   0  0  0  0  0  0  0  0  0  0  0  0
   -0.2625    0.3083    0.0000 C   0  0  0  0  0  0  0  0  0  0  0  0
   -1.2833    2.2208    0.0000 C   0  0  0  0  0  0  0  0  0  0  0  0
    0.5125    0.0750    0.0000 C   0  0  0  0  0  0  0  0  0  0  0  0
    4.6792   -0.0792    0.0000 C   0  0  0  0  0  0  0  0  0  0  0  0
    2.5250    0.2708    0.0000 C   0  0  0  0  0  0  0  0  0  0  0  0
    2.0167   -0.3417    0.0000 C   0  0  0  0  0  0  0  0  0  0  0  0
    0.0292    2.7333    0.0000 C   0  0  0  0  0  0  0  0  0  0  0  0
   -0.7583    0.9375    0.0000 O   0  0  0  0  0  0  0  0  0  0  0  0
   -0.7833    2.8500    0.0000 C   0  0  0  0  0  0  0  0  0  0  0  0
    0.3250    1.9958    0.0000 C   0  0  0  0  0  0  0  0  0  0  0  0
    3.2667   -0.0917    0.0000 O   0  0  0  0  0  0  0  0  0  0  0  0
    0.4250   -3.0667    0.0000 C   0  0  0  0  0  0  0  0  0  0  0  0
    5.3792   -0.4792    0.0000 C   0  0  0  0  0  0  0  0  0  0  0  0
    2.2292    1.0125    0.0000 C   0  0  0  0  0  0  0  0  0  0  0  0
    0.4250   -1.6792    0.0000 C   0  0  0  0  0  0  0  0  0  0  0  0
    0.8292   -2.3667    0.0000 C   0  0  0  0  0  0  0  0  0  0  0  0
    3.9792   -1.2625    0.0000 O   0  0  0  0  0  0  0  0  0  0  0  0
   -0.3875   -1.6792    0.0000 O   0  0  0  0  0  0  0  0  0  0  0  0
   -1.3958    1.4250    0.0000 C   0  0  0  0  0  0  0  0  0  0  0  0
   -0.3833   -3.0667    0.0000 C   0  0  0  0  0  0  0  0  0  0  0  0
    0.8250   -0.9875    0.0000 O   0  0  0  0  0  0  0  0  0  0  0  0
   -0.7958   -2.3792    0.0000 C   0  0  0  0  0  0  0  0  0  0  0  0
    1.1250    1.8833    0.0000 C   0  0  0  0  0  0  0  0  0  0  0  0
    1.4292    1.1458    0.0000 C   0  0  0  0  0  0  0  0  0  0  0  0
    5.3792   -1.2792    0.0000 C   0  0  0  0  0  0  0  0  0  0  0  0
    6.0792   -0.0917    0.0000 N   0  0  0  0  0  0  0  0  0  0  0  0
   -0.7333   -0.3667    0.0000 O   0  0  0  0  0  0  0  0  0  0  0  0
    4.6792   -1.6792    0.0000 C   0  0  0  0  0  0  0  0  0  0  0  0
    7.9792   -1.4167    0.0000 C   0  0  0  0  0  0  0  0  0  0  0  0
   -0.1833    1.3583    0.0000 O   0  0  0  0  0  0  0  0  0  0  0  0
    7.4542   -1.1167    0.0000 O   0  0  0  0  0  0  0  0  0  0  0  0
   -1.9208    2.7083    0.0000 O   0  0  0  0  0  0  0  0  0  0  0  0
    4.6917    0.7333    0.0000 O   0  0  0  0  0  0  0  0  0  0  0  0
    3.0125    1.1833    0.0000 O   0  0  0  0  0  0  0  0  0  0  0  0
   -1.0833    3.5958    0.0000 O   0  0  0  0  0  0  0  0  0  0  0  0
    0.0167   -3.7917    0.0000 O   0  0  0  0  0  0  0  0  0  0  0  0
   -0.7958   -3.7542    0.0000 O   0  0  0  0  0  0  0  0  0  0  0  0
   -2.0208    1.9208    0.0000 C   0  0  0  0  0  0  0  0  0  0  0  0
    0.8250    0.8458    0.0000 C   0  0  0  0  0  0  0  0  0  0  0  0
    7.9792   -2.0167    0.0000 O   0  0  0  0  0  0  0  0  0  0  0  0
    2.3750   -1.0750    0.0000 C   0  0  0  0  0  0  0  0  0  0  0  0
    0.5375    3.3708    0.0000 C   0  0  0  0  0  0  0  0  0  0  0  0
    1.0167   -3.5792    0.0000 C   0  0  0  0  0  0  0  0  0  0  0  0
    2.4875    1.7708    0.0000 C   0  0  0  0  0  0  0  0  0  0  0  0
   -2.1458    1.1208    0.0000 C   0  0  0  0  0  0  0  0  0  0  0  0
   -1.6125   -2.3875    0.0000 C   0  0  0  0  0  0  0  0  0  0  0  0
    1.6375    2.5083    0.0000 C   0  0  0  0  0  0  0  0  0  0  0  0
    8.5042   -1.1250    0.0000 C   0  0  0  0  0  0  0  0  0  0  0  0
    6.0792    0.7083    0.0000 C   0  0  0  0  0  0  0  0  0  0  0  0
    6.7667   -0.4875    0.0000 C   0  0  0  0  0  0  0  0  0  0  0  0
    4.6667   -2.4792    0.0000 C   0  0  0  0  0  0  0  0  0  0  0  0
    0.4250   -4.4917    0.0000 C   0  0  0  0  0  0  0  0  0  0  0  0
    8.5042   -0.5292    0.0000 C   0  0  0  0  0  0  0  0  0  0  0  0
    5.8792    2.1458    0.0000 C   0  0  0  0  0  0  0  0  0  0  0  0
    6.4042    2.4375    0.0000 C   0  0  0  0  0  0  0  0  0  0  0  0
    9.5542    2.4583    0.0000 C   0  0  0  0  0  0  0  0  0  0  0  0
   10.0792    2.1500    0.0000 C   0  0  0  0  0  0  0  0  0  0  0  0
   10.0792    1.5583    0.0000 C   0  0  0  0  0  0  0  0  0  0  0  0
    9.5542    1.2583    0.0000 C   0  0  0  0  0  0  0  0  0  0  0  0
    9.5542    0.6625    0.0000 C   0  0  0  0  0  0  0  0  0  0  0  0
    9.0292    0.3708    0.0000 C   0  0  0  0  0  0  0  0  0  0  0  0
    9.0292   -0.2292    0.0000 C   0  0  0  0  0  0  0  0  0  0  0  0
    6.9292    2.1458    0.0000 C   0  0  0  0  0  0  0  0  0  0  0  0
    7.4542    2.4458    0.0000 C   0  0  0  0  0  0  0  0  0  0  0  0
    7.9792    2.1458    0.0000 C   0  0  0  0  0  0  0  0  0  0  0  0
    8.5042    2.4458    0.0000 C   0  0  0  0  0  0  0  0  0  0  0  0
    9.0292    2.1458    0.0000 C   0  0  0  0  0  0  0  0  0  0  0  0
   -2.2625    0.3333    0.0000 C   0  0  0  0  0  0  0  0  0  0  0  0
    5.3542    2.4375    0.0000 C   0  0  0  0  0  0  0  0  0  0  0  0
  2  8  1  0
  3  5  1  0
  4 11  1  0
  5  2  1  0
  6  1  1  0
  7 13  1  6
  8  7  1  0
  9 12  1  0
 10  3  1  0
 11  9  1  0
 12 25  1  0
  1 13  1  1
 14 18  1  0
 15  6  1  0
 16  7  1  0
 17 23  1  1
 18 17  1  0
 19  1  1  0
 20 17  1  0
 21 10  1  0
 22 14  1  0
  2 23  1  6
 24 20  1  0
 25 26  1  0
 26 16  1  0
 27 30  1  0
 15 28  1  1
 29  3  2  0
 30 19  1  0
 32 12  2  0
 33 31  2  0
  4 34  1  0
  6 35  1  6
 16 36  1  0
 11 37  1  6
 14 38  1  0
 22 39  1  1
  4 40  1  6
  5 41  1  6
 42 31  1  0
  8 43  1  1
  9 44  1  1
 14 45  1  6
 16 46  1  6
 21 47  1  6
 24 48  1  6
 25 49  1  6
 50 31  1  0
 51 28  1  0
 52 28  1  0
 30 53  1  1
 54 38  1  0
 55 50  1  0
 56 57  1  0
 57 65  1  0
 58 59  1  0
 59 60  1  0
 60 61  1  0
 61 62  1  0
 62 63  1  0
 63 64  1  0
 64 55  1  0
 65 66  1  0
 66 67  1  0
 67 68  1  0
 68 69  1  0
 69 58  1  0
 70 47  1  0
 71 56  1  0
 15 27  1  0
 21  4  1  0
 22 24  1  0
M  END
>  <ID>  (1556) 


>  <MOLENAME>  (1556) 
ERYTHROMYCIN STEARATE

>  <therap>  (1556) 
antibacterial

>  <ref>  (1556) 
J. Antimicrob. Chemother. (1984), 14(2), 157-63; J. Antimicrob. Chemother. (1980), 6(3), 389-92

>  <cas#>  (1556) 
643-22-1; 114-07-8(base)

>  <source>  (1556) 
Streptomyces erythreus

>  <status>  (1556) 
INN, BAN, JAN

>  <tradename>  (1556) 
ERYTHROCIN

>  <SMILES>  (1556) 
CC[C@H]1OC(=O)[C@H](C)[C@@H](O[C@H]2C[C@@](C)(OC)[C@@H](O)[C@H](C)O2)[C@H](C)[C@@H](O[C@@H]2O[C@H](C)C[C@H](N(C)C)[C@H]2O)[C@](C)(O)C[C@@H](C)C(=O)[C@H](C)[C@@H](O)[C@]1(C)O

>  <standardized_failed>  (1556) 
False

$$$$

     RDKit          2D

 13 14  0  0  0  0  0  0  0  0999 V2000
    4.1917   -1.9292    0.0000 C   0  0  0  0  0  0  0  0  0  0  0  0
    3.5417   -1.5500    0.0000 C   0  0  0  0  0  0  0  0  0  0  0  0
    4.1917   -2.6792    0.0000 C   0  0  0  0  0  0  0  0  0  0  0  0
    2.8917   -1.9292    0.0000 C   0  0  0  0  0  0  0  0  0  0  0  0
    3.5417   -3.0542    0.0000 C   0  0  0  0  0  0  0  0  0  0  0  0
    2.8917   -2.6792    0.0000 C   0  0  0  0  0  0  0  0  0  0  0  0
    4.8500   -1.5500    0.0000 N   0  0  0  0  0  0  0  0  0  0  0  0
    3.5417   -0.8000    0.0000 O   0  0  0  0  0  0  0  0  0  0  0  0
    2.2417   -1.5542    0.0000 Br  0  0  0  0  0  0  0  0  0  0  0  0
    3.5417   -3.8042    0.0000 Br  0  0  0  0  0  0  0  0  0  0  0  0
    4.8500   -3.0542    0.0000 C   0  0  0  0  0  0  0  0  0  0  0  0
    5.5042   -1.9292    0.0000 C   0  0  0  0  0  0  0  0  0  0  0  0
    5.5042   -2.6792    0.0000 C   0  0  0  0  0  0  0  0  0  0  0  0
  2  1  2  0
  3  1  1  0
  4  2  1  0
  5  3  2  0
  6  5  1  0
  7  1  1  0
  8  2  1  0
  9  4  1  0
 10  5  1  0
 11  3  1  0
 12  7  2  0
 13 12  1  0
 13 11  2  0
  6  4  2  0
M  END
>  <ID>  (1557) 


>  <MOLENAME>  (1557) 
BROXYQUINOLINE

>  <therap>  (1557) 
antiinfectant, disinfectant

>  <ref>  (1557) 
Biochem Pharmacol 17:1647 (1968)

>  <cas#>  (1557) 
521-74-4

>  <source>  (1557) 
synthetic

>  <status>  (1557) 
INN

>  <tradename>  (1557) 
FENILOR

>  <SMILES>  (1557) 
Oc1c2ncccc2c(Br)cc1Br

>  <standardized_failed>  (1557) 
False

$$$$

     RDKit          2D

 23 26  0  0  0  0  0  0  0  0999 V2000
    7.4917   -7.0667    0.0000 C   0  0  0  0  0  0  0  0  0  0  0  0
    5.3500   -8.3042    0.0000 C   0  0  0  0  0  0  0  0  0  0  0  0
    5.3500   -9.1292    0.0000 C   0  0  0  0  0  0  0  0  0  0  0  0
    7.4917   -7.8917    0.0000 C   0  0  0  0  0  0  0  0  0  0  0  0
    6.0625   -7.8917    0.0000 C   0  0  0  0  0  0  0  0  0  0  0  0
    6.7792   -8.3042    0.0000 C   0  0  0  0  0  0  0  0  0  0  0  0
    8.2792   -6.8125    0.0000 C   0  0  0  0  0  0  0  0  0  0  0  0
    6.0625   -9.5417    0.0000 C   0  0  0  0  0  0  0  0  0  0  0  0
    6.7750   -6.6542    0.0000 C   0  0  0  0  0  0  0  0  0  0  0  0
    6.7792   -9.1292    0.0000 C   0  0  0  0  0  0  0  0  0  0  0  0
    6.0625   -7.0667    0.0000 C   0  0  0  0  0  0  0  0  0  0  0  0
    8.2792   -8.1500    0.0000 C   0  0  0  0  0  0  0  0  0  0  0  0
    4.6375   -7.8917    0.0000 C   0  0  0  0  0  0  0  0  0  0  0  0
    8.7625   -7.4792    0.0000 C   0  0  0  0  0  0  0  0  0  0  0  0
    8.5292   -6.0250    0.0000 C   0  0  0  0  0  0  0  0  0  0  0  0
    4.6375   -9.5417    0.0000 C   0  0  0  0  0  0  0  0  0  0  0  0
    9.3375   -5.8500    0.0000 O   0  0  0  0  0  0  0  0  0  0  0  0
    7.4500   -6.2125    0.0000 C   0  0  0  0  0  0  0  0  0  0  0  0
    3.9167   -8.3042    0.0000 C   0  0  0  0  0  0  0  0  0  0  0  0
    3.9167   -9.1292    0.0000 C   0  0  0  0  0  0  0  0  0  0  0  0
    5.3500   -7.4792    0.0000 C   0  0  0  0  0  0  0  0  0  0  0  0
    3.2000   -9.5542    0.0000 O   0  0  0  0  0  0  0  0  0  0  0  0
    7.9792   -5.4125    0.0000 C   0  0  0  0  0  0  0  0  0  0  0  0
  2  5  1  0
  3  2  1  0
  4  1  1  0
  5 11  1  0
  6  4  1  0
  7  1  1  0
  8 10  1  0
  9  1  1  0
 10  6  1  0
 11  9  1  0
 12  4  1  0
 13  2  1  0
 14  7  1  0
  7 15  1  1
 16  3  1  0
 17 15  2  0
  1 18  1  1
 19 13  1  0
 20 19  1  0
  2 21  1  1
 20 22  1  1
 23 15  1  0
 14 12  1  0
  5  6  1  0
  8  3  2  0
 20 16  1  0
M  END
>  <ID>  (1558) 


>  <MOLENAME>  (1558) 
PREGNENOLONE

>  <therap>  (1558) 
glucocortcoid, antiinflammatory

>  <ref>  (1558) 
Brain Res 270:119 (1983); Endocrinology 140:1936 (1999); J Steroid Biochem Mol Biol 75:1 (2000)

>  <cas#>  (1558) 
145-13-1, 4598-67-8 [pregnenolone succinate]

>  <source>  (1558) 
semisynthetic

>  <status>  (1558) 
INN, BAN

>  <tradename>  (1558) 
nan

>  <SMILES>  (1558) 
CC(=O)[C@H]1CCC2C3CC=C4C[C@@H](O)CC[C@]4(C)C3CC[C@@]21C

>  <standardized_failed>  (1558) 
False

$$$$

     RDKit          2D

 11 11  0  0  0  0  0  0  0  0999 V2000
    4.2500   -2.1417    0.0000 S   0  0  0  0  0  0  0  0  0  0  0  0
    3.5000   -2.1417    0.0000 C   0  0  0  0  0  0  0  0  0  0  0  0
    4.6292   -1.5000    0.0000 O   0  0  0  0  0  0  0  0  0  0  0  0
    4.9250   -2.1500    0.0000 O   0  0  0  0  0  0  0  0  0  0  0  0
    4.2500   -2.8917    0.0000 N   0  0  0  0  0  0  0  0  0  0  0  0
    3.1250   -1.4917    0.0000 C   0  0  0  0  0  0  0  0  0  0  0  0
    3.1250   -2.7917    0.0000 C   0  0  0  0  0  0  0  0  0  0  0  0
    2.0000   -2.1417    0.0000 C   0  0  0  0  0  0  0  0  0  0  0  0
    1.2500   -2.1417    0.0000 N   0  0  0  0  0  0  0  0  0  0  0  0
    2.3750   -2.7917    0.0000 C   0  0  0  0  0  0  0  0  0  0  0  0
    2.3750   -1.4917    0.0000 C   0  0  0  0  0  0  0  0  0  0  0  0
  2  1  1  0
  3  1  2  0
  4  1  2  0
  5  1  1  0
  6  2  2  0
  7  2  1  0
  8 10  1  0
  9  8  1  0
 10  7  2  0
 11  6  1  0
  8 11  2  0
M  END
>  <ID>  (1559) 


>  <MOLENAME>  (1559) 
SULFANILAMIDE

>  <therap>  (1559) 
antibacterial

>  <ref>  (1559) 
JAMA 110:252 (1938); Gesnerus 45:67 (1988)

>  <cas#>  (1559) 
63-74-1

>  <source>  (1559) 
synthetic; 1162-F

>  <status>  (1559) 
NF-XI, INN

>  <tradename>  (1559) 
PRONTYLIN

>  <SMILES>  (1559) 
Nc1ccc(S(N)(=O)=O)cc1

>  <standardized_failed>  (1559) 
False

$$$$

     RDKit          2D

 17 18  0  0  0  0  0  0  0  0999 V2000
    2.1167   -2.4167    0.0000 C   0  0  0  0  0  0  0  0  0  0  0  0
    2.7750   -3.5417    0.0000 C   0  0  0  0  0  0  0  0  0  0  0  0
    2.7750   -2.7917    0.0000 C   0  0  0  0  0  0  0  0  0  0  0  0
    2.1167   -1.6667    0.0000 C   0  0  0  0  0  0  0  0  0  0  0  0
    3.4167   -3.9167    0.0000 C   0  0  0  0  0  0  0  0  0  0  0  0
    2.1250   -3.9167    0.0000 C   0  0  0  0  0  0  0  0  0  0  0  0
    1.4667   -2.7917    0.0000 C   0  0  0  0  0  0  0  0  0  0  0  0
    3.4167   -4.6667    0.0000 C   0  0  0  0  0  0  0  0  0  0  0  0
    1.4667   -1.2917    0.0000 C   0  0  0  0  0  0  0  0  0  0  0  0
    0.8250   -2.4167    0.0000 C   0  0  0  0  0  0  0  0  0  0  0  0
    2.1250   -4.6667    0.0000 C   0  0  0  0  0  0  0  0  0  0  0  0
    0.8250   -1.6667    0.0000 C   0  0  0  0  0  0  0  0  0  0  0  0
    2.7750   -5.0417    0.0000 C   0  0  0  0  0  0  0  0  0  0  0  0
    1.4667   -5.0500    0.0000 Cl  0  0  0  0  0  0  0  0  0  0  0  0
    0.1667   -2.8000    0.0000 Cl  0  0  0  0  0  0  0  0  0  0  0  0
    4.0750   -3.5417    0.0000 O   0  0  0  0  0  0  0  0  0  0  0  0
    2.7750   -1.2875    0.0000 O   0  0  0  0  0  0  0  0  0  0  0  0
  2  3  1  0
  3  1  1  0
  4  1  2  0
  5  2  2  0
  6  2  1  0
  7  1  1  0
  8  5  1  0
  9  4  1  0
 10  7  2  0
 11  6  2  0
 12 10  1  0
 13 11  1  0
 14 11  1  0
 15 10  1  0
 16  5  1  0
 17  4  1  0
 12  9  2  0
  8 13  2  0
M  END
>  <ID>  (1560) 


>  <MOLENAME>  (1560) 
DICHLOROPHEN

>  <therap>  (1560) 
anthelmintic

>  <ref>  (1560) 
Wien. Tieraerztl. Monatsschr. (1966), 53(12), 795-802; Am. J. Vet. Res. (1966), 27(121), 1755-8; J. Trop. Med. Hyg. (1980), 83(2), 71-4

>  <cas#>  (1560) 
97-23-4

>  <source>  (1560) 
synthetic; G-4

>  <status>  (1560) 
INN, BAN

>  <tradename>  (1560) 
nan

>  <SMILES>  (1560) 
Oc1c(Cc2c(O)ccc(Cl)c2)cc(Cl)cc1

>  <standardized_failed>  (1560) 
False

$$$$

     RDKit          2D

 17 18  0  0  0  0  0  0  0  0999 V2000
    3.7875   -1.7042    0.0000 N   0  0  0  0  0  0  0  0  0  0  0  0
    5.2125   -0.8792    0.0000 N   0  0  0  0  0  0  0  0  0  0  0  0
    4.5000   -2.1167    0.0000 C   0  0  0  0  0  0  0  0  0  0  0  0
    3.7792   -0.8792    0.0000 C   0  0  0  0  0  0  0  0  0  0  0  0
    3.0750   -2.1167    0.0000 C   0  0  0  0  0  0  0  0  0  0  0  0
    5.9250   -0.4667    0.0000 C   0  0  0  0  0  0  0  0  0  0  0  0
    5.2125   -1.7042    0.0000 C   0  0  0  0  0  0  0  0  0  0  0  0
    4.4917   -0.4667    0.0000 C   0  0  0  0  0  0  0  0  0  0  0  0
    6.6417   -0.8792    0.0000 C   0  0  0  0  0  0  0  0  0  0  0  0
    6.6417   -1.7042    0.0000 O   0  0  0  0  0  0  0  0  0  0  0  0
    8.0667   -0.8792    0.0000 O   0  0  0  0  0  0  0  0  0  0  0  0
    7.3542   -0.4667    0.0000 C   0  0  0  0  0  0  0  0  0  0  0  0
    2.3542   -1.7042    0.0000 C   0  0  0  0  0  0  0  0  0  0  0  0
    3.0750   -2.9500    0.0000 C   0  0  0  0  0  0  0  0  0  0  0  0
    1.6417   -2.1250    0.0000 C   0  0  0  0  0  0  0  0  0  0  0  0
    2.3542   -3.3625    0.0000 C   0  0  0  0  0  0  0  0  0  0  0  0
    1.6417   -2.9500    0.0000 C   0  0  0  0  0  0  0  0  0  0  0  0
  2  8  1  0
  3  1  1  0
  4  1  1  0
  5  1  1  0
  6  2  1  0
  7  3  1  0
  8  4  1  0
  9  6  1  0
 10  9  1  0
 11 12  1  0
 12  9  1  0
 13  5  2  0
 14  5  1  0
 15 13  1  0
 16 14  2  0
 17 16  1  0
  7  2  1  0
 15 17  2  0
M  END
>  <ID>  (1561) 


>  <MOLENAME>  (1561) 
DROPROPIZINE

>  <therap>  (1561) 
antitussive

>  <ref>  (1561) 
Arzneim. Forsch. (1988), 38(8), 1159-62; Arzneim. Forsch. (1988), 38(8), 1144-50; Arzneim. Forsch. (1988), 38(8), 1141-3,

>  <cas#>  (1561) 
17692-31-8

>  <source>  (1561) 
synthetic; UCB-1967

>  <status>  (1561) 
INN, BAN

>  <tradename>  (1561) 
nan

>  <SMILES>  (1561) 
OCC(O)CN1CCN(c2ccccc2)CC1

>  <standardized_failed>  (1561) 
False

$$$$

     RDKit          2D

 20 21  0  0  0  0  0  0  0  0999 V2000
    2.9417   -0.4042    0.0000 C   0  0  0  0  0  0  0  0  0  0  0  0
    3.6542    0.0083    0.0000 O   0  0  0  0  0  0  0  0  0  0  0  0
    2.2292    0.0083    0.0000 C   0  0  0  0  0  0  0  0  0  0  0  0
    4.3667   -0.4042    0.0000 C   0  0  0  0  0  0  0  0  0  0  0  0
    5.0792   -1.6333    0.0000 C   0  0  0  0  0  0  0  0  0  0  0  0
    2.9417   -1.2292    0.0000 O   0  0  0  0  0  0  0  0  0  0  0  0
    4.3667   -1.2208    0.0000 C   0  0  0  0  0  0  0  0  0  0  0  0
    1.5167   -0.4042    0.0000 C   0  0  0  0  0  0  0  0  0  0  0  0
    5.7917   -1.2208    0.0000 C   0  0  0  0  0  0  0  0  0  0  0  0
    5.0792    0.0083    0.0000 C   0  0  0  0  0  0  0  0  0  0  0  0
    5.7917   -0.3958    0.0000 C   0  0  0  0  0  0  0  0  0  0  0  0
    2.2250    0.8333    0.0000 O   0  0  0  0  0  0  0  0  0  0  0  0
    4.4917   -2.2167    0.0000 C   0  0  0  0  0  0  0  0  0  0  0  0
    5.6625   -2.2167    0.0000 C   0  0  0  0  0  0  0  0  0  0  0  0
    0.8000    0.0083    0.0000 C   0  0  0  0  0  0  0  0  0  0  0  0
    1.5167   -1.2333    0.0000 C   0  0  0  0  0  0  0  0  0  0  0  0
    6.5042    0.0167    0.0000 C   0  0  0  0  0  0  0  0  0  0  0  0
    0.8000   -1.6458    0.0000 C   0  0  0  0  0  0  0  0  0  0  0  0
    0.0875   -0.4042    0.0000 C   0  0  0  0  0  0  0  0  0  0  0  0
    0.0875   -1.2333    0.0000 C   0  0  0  0  0  0  0  0  0  0  0  0
  2  1  1  0
  3  1  1  0
  4  2  1  0
  5  7  1  0
  6  1  2  0
  7  4  1  0
  8  3  1  0
  9  5  1  0
 10  4  1  0
 11 10  1  0
 12  3  1  0
 13  5  1  0
 14  5  1  0
 15  8  2  0
 16  8  1  0
 17 11  1  0
 18 16  2  0
 19 15  1  0
 20 19  2  0
 11  9  1  0
 18 20  1  0
M  END
>  <ID>  (1562) 


>  <MOLENAME>  (1562) 
CYCLANDELATE

>  <therap>  (1562) 
vasodilator

>  <ref>  (1562) 
Arzneim Forsch 2:165 (1952); 3:503 (1953)

>  <cas#>  (1562) 
456-59-7

>  <source>  (1562) 
synthetic; BS-572

>  <status>  (1562) 
INN, BAN, JAN

>  <tradename>  (1562) 
CYCLOSPASMOL

>  <SMILES>  (1562) 
CC1CC(OC(=O)C(O)c2ccccc2)CC(C)(C)C1

>  <standardized_failed>  (1562) 
False

$$$$

     RDKit          2D

 37 41  0  0  0  0  0  0  0  0999 V2000
    8.3292   -4.7458    0.0000 C   0  0  0  0  0  0  0  0  0  0  0  0
    9.0333   -4.3292    0.0000 N   0  0  0  0  0  0  0  0  0  0  0  0
    4.0500   -4.7667    0.0000 C   0  0  0  0  0  0  0  0  0  0  0  0
    6.9000   -4.7542    0.0000 C   0  0  0  0  0  0  0  0  0  0  0  0
    7.6125   -4.3375    0.0000 N   0  0  0  0  0  0  0  0  0  0  0  0
    4.7625   -4.3500    0.0000 N   0  0  0  0  0  0  0  0  0  0  0  0
    9.7500   -4.7333    0.0000 C   0  0  0  0  0  0  0  0  0  0  0  0
    1.1917   -2.2917    0.0000 N   0  0  0  0  0  0  0  0  0  0  0  0
    6.1875   -4.3458    0.0000 C   0  0  0  0  0  0  0  0  0  0  0  0
    1.1958   -0.6417    0.0000 N   0  0  0  0  0  0  0  0  0  0  0  0
    8.3292   -5.5708    0.0000 N   0  0  0  0  0  0  0  0  0  0  0  0
    3.3333   -4.3542    0.0000 C   0  0  0  0  0  0  0  0  0  0  0  0
    5.4792   -4.7625    0.0000 C   0  0  0  0  0  0  0  0  0  0  0  0
   10.4583   -4.3167    0.0000 C   0  0  0  0  0  0  0  0  0  0  0  0
    6.9042   -5.5833    0.0000 C   0  0  0  0  0  0  0  0  0  0  0  0
    4.0500   -5.5917    0.0000 O   0  0  0  0  0  0  0  0  0  0  0  0
   11.1542   -3.0708    0.0000 N   0  0  0  0  0  0  0  0  0  0  0  0
    1.1917   -3.1167    0.0000 C   0  0  0  0  0  0  0  0  0  0  0  0
    3.3333   -3.5250    0.0000 C   0  0  0  0  0  0  0  0  0  0  0  0
    2.6167   -4.7667    0.0000 C   0  0  0  0  0  0  0  0  0  0  0  0
    6.1917   -5.9958    0.0000 C   0  0  0  0  0  0  0  0  0  0  0  0
    1.9083   -1.8792    0.0000 C   0  0  0  0  0  0  0  0  0  0  0  0
    0.4750   -1.8792    0.0000 C   0  0  0  0  0  0  0  0  0  0  0  0
    0.4792   -1.0542    0.0000 C   0  0  0  0  0  0  0  0  0  0  0  0
    1.9083   -1.0583    0.0000 C   0  0  0  0  0  0  0  0  0  0  0  0
    9.7583   -5.5625    0.0000 C   0  0  0  0  0  0  0  0  0  0  0  0
    9.0458   -5.9792    0.0000 C   0  0  0  0  0  0  0  0  0  0  0  0
    1.9042   -3.5250    0.0000 C   0  0  0  0  0  0  0  0  0  0  0  0
    5.4750   -5.5875    0.0000 C   0  0  0  0  0  0  0  0  0  0  0  0
    2.6167   -3.1125    0.0000 C   0  0  0  0  0  0  0  0  0  0  0  0
    1.9042   -4.3542    0.0000 C   0  0  0  0  0  0  0  0  0  0  0  0
   10.4500   -3.4917    0.0000 C   0  0  0  0  0  0  0  0  0  0  0  0
    1.2000    0.1833    0.0000 C   0  0  0  0  0  0  0  0  0  0  0  0
   11.1750   -4.7208    0.0000 C   0  0  0  0  0  0  0  0  0  0  0  0
   11.8792   -3.4792    0.0000 C   0  0  0  0  0  0  0  0  0  0  0  0
    7.6208   -5.9958    0.0000 C   0  0  0  0  0  0  0  0  0  0  0  0
   11.8875   -4.3042    0.0000 C   0  0  0  0  0  0  0  0  0  0  0  0
  2  1  2  0
  3  6  1  0
  4  5  1  0
  5  1  1  0
  6 13  1  0
  7  2  1  0
  8 18  1  0
  9  4  2  0
 10 24  1  0
 11  1  1  0
 12  3  1  0
 13  9  1  0
 14  7  1  0
 15  4  1  0
 16  3  2  0
 17 32  2  0
 18 28  1  0
 19 12  2  0
 20 12  1  0
 21 15  2  0
 22  8  1  0
 23  8  1  0
 24 23  1  0
 25 22  1  0
 26  7  2  0
 27 11  2  0
 28 31  1  0
 29 13  2  0
 30 19  1  0
 31 20  2  0
 32 14  1  0
 33 10  1  0
 34 14  2  0
 35 17  1  0
 36 15  1  0
 37 34  1  0
 26 27  1  0
 21 29  1  0
 35 37  2  0
 28 30  2  0
 10 25  1  0
M  END
>  <ID>  (1563) 


>  <MOLENAME>  (1563) 
IMATINIB

>  <therap>  (1563) 
antineoplastic

>  <ref>  (1563) 
Biorg. Med. Chem. Lett. (1997), 7(2), 187-192; Nat. Med. (1996), 2(5), 561-566; Cancer Res. (1996), 56(1), 100-4.

>  <cas#>  (1563) 
152459-95-5

>  <source>  (1563) 
synthetic; STI571

>  <status>  (1563) 
INN, BAN

>  <tradename>  (1563) 
GLEVEEC

>  <SMILES>  (1563) 
Cc1ccc(NC(=O)c2ccc(CN3CCN(C)CC3)cc2)cc1Nc1nc(-c2cccnc2)ccn1

>  <standardized_failed>  (1563) 
False

$$$$

     RDKit          2D

 18 19  0  0  0  0  0  0  0  0999 V2000
    5.0917   -1.6750    0.0000 N   0  0  0  0  0  0  0  0  0  0  0  0
    5.8375   -1.3375    0.0000 C   0  0  0  0  0  0  0  0  0  0  0  0
    2.2417   -1.6833    0.0000 C   0  0  0  0  0  0  0  0  0  0  0  0
    3.6667   -1.6792    0.0000 C   0  0  0  0  0  0  0  0  0  0  0  0
    2.9542   -1.2667    0.0000 N   0  0  0  0  0  0  0  0  0  0  0  0
    4.3792   -1.2667    0.0000 C   0  0  0  0  0  0  0  0  0  0  0  0
    6.0083   -0.5292    0.0000 O   0  0  0  0  0  0  0  0  0  0  0  0
    3.6667   -2.5042    0.0000 O   0  0  0  0  0  0  0  0  0  0  0  0
    1.5250   -1.2708    0.0000 C   0  0  0  0  0  0  0  0  0  0  0  0
    2.2417   -2.5125    0.0000 C   0  0  0  0  0  0  0  0  0  0  0  0
    5.1792   -2.4875    0.0000 C   0  0  0  0  0  0  0  0  0  0  0  0
    6.3917   -1.9458    0.0000 C   0  0  0  0  0  0  0  0  0  0  0  0
    5.9833   -2.6583    0.0000 C   0  0  0  0  0  0  0  0  0  0  0  0
    0.8125   -2.5125    0.0000 C   0  0  0  0  0  0  0  0  0  0  0  0
    1.5250   -2.9250    0.0000 C   0  0  0  0  0  0  0  0  0  0  0  0
    0.8125   -1.6875    0.0000 C   0  0  0  0  0  0  0  0  0  0  0  0
    1.5208   -0.4458    0.0000 C   0  0  0  0  0  0  0  0  0  0  0  0
    2.9583   -2.9250    0.0000 C   0  0  0  0  0  0  0  0  0  0  0  0
  2  1  1  0
  3  5  1  0
  4  6  1  0
  5  4  1  0
  6  1  1  0
  7  2  2  0
  8  4  2  0
  9  3  2  0
 10  3  1  0
 11  1  1  0
 12  2  1  0
 13 11  1  0
 14 16  2  0
 15 10  2  0
 16  9  1  0
 17  9  1  0
 18 10  1  0
 12 13  1  0
 15 14  1  0
M  END
>  <ID>  (1564) 


>  <MOLENAME>  (1564) 
NEFIRACETAM

>  <therap>  (1564) 
analgesic, antiinflammatory

>  <ref>  (1564) 
Japan J Pharmacol 50:47 (1989); Arzneim Forsch 44:193 (1994)

>  <cas#>  (1564) 
77191-36-7

>  <source>  (1564) 
synthetic

>  <status>  (1564) 
INN

>  <tradename>  (1564) 
TRANSLON

>  <SMILES>  (1564) 
Cc1c(NC(=O)CN2CCCC2=O)c(C)ccc1

>  <standardized_failed>  (1564) 
False

$$$$

     RDKit          2D

 27 28  0  0  0  0  0  0  0  0999 V2000
    4.8792   -1.8542    0.0000 C   0  0  0  0  0  0  0  0  0  0  0  0
    4.1667   -2.2667    0.0000 C   0  0  0  0  0  0  0  0  0  0  0  0
    3.4542   -1.8542    0.0000 N   0  0  0  0  0  0  0  0  0  0  0  0
    2.0292   -1.8625    0.0000 C   0  0  0  0  0  0  0  0  0  0  0  0
    5.5917    0.2125    0.0000 C   0  0  0  0  0  0  0  0  0  0  0  0
    5.5958   -0.6125    0.0000 S   0  0  0  0  0  0  0  0  0  0  0  0
    5.5958   -2.2625    0.0000 C   0  0  0  0  0  0  0  0  0  0  0  0
    4.8792   -1.0292    0.0000 C   0  0  0  0  0  0  0  0  0  0  0  0
    4.1708   -3.0917    0.0000 O   0  0  0  0  0  0  0  0  0  0  0  0
    2.0292   -1.0375    0.0000 O   0  0  0  0  0  0  0  0  0  0  0  0
    4.8792    0.6208    0.0000 O   0  0  0  0  0  0  0  0  0  0  0  0
    1.3167   -2.2750    0.0000 O   0  0  0  0  0  0  0  0  0  0  0  0
    2.7417   -2.2667    0.0000 C   0  0  0  0  0  0  0  0  0  0  0  0
    0.6042   -1.8667    0.0000 C   0  0  0  0  0  0  0  0  0  0  0  0
    5.5917   -3.0875    0.0000 C   0  0  0  0  0  0  0  0  0  0  0  0
   -0.1042   -2.2792    0.0000 C   0  0  0  0  0  0  0  0  0  0  0  0
    6.3083    0.6250    0.0000 C   0  0  0  0  0  0  0  0  0  0  0  0
    4.8708   -3.4875    0.0000 C   0  0  0  0  0  0  0  0  0  0  0  0
    6.2958   -3.5000    0.0000 C   0  0  0  0  0  0  0  0  0  0  0  0
   -0.1042   -3.1083    0.0000 C   0  0  0  0  0  0  0  0  0  0  0  0
   -0.8208   -1.8667    0.0000 C   0  0  0  0  0  0  0  0  0  0  0  0
   -0.8208   -3.5208    0.0000 C   0  0  0  0  0  0  0  0  0  0  0  0
    4.8667   -4.3083    0.0000 C   0  0  0  0  0  0  0  0  0  0  0  0
    6.2917   -4.3167    0.0000 C   0  0  0  0  0  0  0  0  0  0  0  0
   -1.5333   -2.2792    0.0000 C   0  0  0  0  0  0  0  0  0  0  0  0
   -1.5333   -3.1083    0.0000 C   0  0  0  0  0  0  0  0  0  0  0  0
    5.5750   -4.7250    0.0000 C   0  0  0  0  0  0  0  0  0  0  0  0
  2  1  1  0
  3  2  1  0
  4 13  1  0
  5  6  1  0
  6  8  1  0
  7  1  1  0
  8  1  1  0
  9  2  2  0
 10  4  2  0
 11  5  2  0
 12  4  1  0
 13  3  1  0
 14 12  1  0
 15  7  1  0
 16 14  1  0
 17  5  1  0
 18 15  2  0
 19 15  1  0
 20 16  2  0
 21 16  1  0
 22 20  1  0
 23 18  1  0
 24 19  2  0
 25 21  2  0
 26 25  1  0
 27 24  1  0
 27 23  2  0
 22 26  2  0
M  END
>  <ID>  (1565) 


>  <MOLENAME>  (1565) 
RACECADOTRIL

>  <therap>  (1565) 
antidiarrheal

>  <ref>  (1565) 
J Pharmacol Exp Ther 237:937 (1986); J Antimicrob Agents 14:75, 81 (2000)

>  <cas#>  (1565) 
81110-73-8

>  <source>  (1565) 
synthetic; 

>  <status>  (1565) 
INN

>  <tradename>  (1565) 
TIORFAN

>  <SMILES>  (1565) 
CC(=O)SCC(Cc1ccccc1)C(=O)NCC(=O)OCc1ccccc1

>  <standardized_failed>  (1565) 
False

$$$$

     RDKit          2D

 16 16  0  0  0  0  0  0  0  0999 V2000
    0.6917    2.0708    0.0000 N   0  0  0  0  0  0  0  0  0  0  0  0
    1.1042    1.3583    0.0000 C   0  0  0  0  0  0  0  0  0  0  0  0
    0.7000   -0.7750    0.0000 N   0  0  0  0  0  0  0  0  0  0  0  0
    2.3417    0.6500    0.0000 C   0  0  0  0  0  0  0  0  0  0  0  0
    1.1042   -0.0625    0.0000 C   0  0  0  0  0  0  0  0  0  0  0  0
    1.9292    1.3625    0.0000 C   0  0  0  0  0  0  0  0  0  0  0  0
    0.7000    0.6458    0.0000 C   0  0  0  0  0  0  0  0  0  0  0  0
    1.9292   -0.0625    0.0000 C   0  0  0  0  0  0  0  0  0  0  0  0
    3.1667    0.6500    0.0000 C   0  0  0  0  0  0  0  0  0  0  0  0
    1.1000    2.7875    0.0000 O   0  0  0  0  0  0  0  0  0  0  0  0
    1.1125   -1.4917    0.0000 O   0  0  0  0  0  0  0  0  0  0  0  0
   -0.1333    2.0708    0.0000 O   0  0  0  0  0  0  0  0  0  0  0  0
   -0.1250   -0.7750    0.0000 O   0  0  0  0  0  0  0  0  0  0  0  0
    3.5792    1.3625    0.0000 O   0  0  0  0  0  0  0  0  0  0  0  0
    3.5792   -0.0667    0.0000 N   0  0  0  0  0  0  0  0  0  0  0  0
    2.3417    2.0833    0.0000 C   0  0  0  0  0  0  0  0  0  0  0  0
  2  1  1  0
  3  5  1  0
  4  6  1  0
  5  7  2  0
  6  2  2  0
  7  2  1  0
  8  5  1  0
  9  4  1  0
 10  1  1  0
 11  3  1  0
 12  1  2  0
 13  3  2  0
 14  9  2  0
 15  9  1  0
 16  6  1  0
  4  8  2  0
M  CHG  4   1   1   3   1  10  -1  11  -1
M  END
>  <ID>  (1566) 


>  <MOLENAME>  (1566) 
DINITOLMIDE

>  <therap>  (1566) 
antiprotozoal

>  <ref>  (1566) 
J. Appl. Anim. Res. (1995), 7(2), 153-9; Parasitology (1981), 83(2), 281-4; J. Parasitol. (1972), 58(4), 664-8

>  <cas#>  (1566) 
148-01-6

>  <source>  (1566) 
synthetic

>  <status>  (1566) 
INN, BAN

>  <tradename>  (1566) 
nan

>  <SMILES>  (1566) 
Cc1c([N+](=O)[O-])cc([N+](=O)[O-])cc1C(N)=O

>  <standardized_failed>  (1566) 
False

$$$$

     RDKit          2D

 31 34  0  0  0  0  0  0  0  0999 V2000
    6.4417   -3.3250    0.0000 C   0  0  0  0  0  0  0  0  0  0  0  0
    5.7292   -2.9042    0.0000 C   0  0  0  0  0  0  0  0  0  0  0  0
    5.7292   -4.5542    0.0000 C   0  0  0  0  0  0  0  0  0  0  0  0
    5.0125   -6.4042    0.0000 C   0  0  0  0  0  0  0  0  0  0  0  0
    5.0167   -3.3167    0.0000 C   0  0  0  0  0  0  0  0  0  0  0  0
    6.4417   -4.1542    0.0000 C   0  0  0  0  0  0  0  0  0  0  0  0
    5.0167   -4.1417    0.0000 C   0  0  0  0  0  0  0  0  0  0  0  0
    5.0125   -7.2292    0.0000 C   0  0  0  0  0  0  0  0  0  0  0  0
    4.2917   -7.6500    0.0000 C   0  0  0  0  0  0  0  0  0  0  0  0
    4.2917   -5.9917    0.0000 O   0  0  0  0  0  0  0  0  0  0  0  0
    5.7292   -5.9917    0.0000 O   0  0  0  0  0  0  0  0  0  0  0  0
    3.5792   -7.2292    0.0000 C   0  0  0  0  0  0  0  0  0  0  0  0
    7.1625   -2.9125    0.0000 C   0  0  0  0  0  0  0  0  0  0  0  0
    3.5792   -6.4042    0.0000 C   0  0  0  0  0  0  0  0  0  0  0  0
    7.1542   -4.5667    0.0000 C   0  0  0  0  0  0  0  0  0  0  0  0
    5.7375   -2.0792    0.0000 O   0  0  0  0  0  0  0  0  0  0  0  0
    4.3042   -2.9042    0.0000 C   0  0  0  0  0  0  0  0  0  0  0  0
    7.8792   -3.3292    0.0000 C   0  0  0  0  0  0  0  0  0  0  0  0
    7.8750   -4.1542    0.0000 C   0  0  0  0  0  0  0  0  0  0  0  0
    5.7292   -7.6500    0.0000 O   0  0  0  0  0  0  0  0  0  0  0  0
    4.2917   -8.4750    0.0000 O   0  0  0  0  0  0  0  0  0  0  0  0
    2.8667   -7.6500    0.0000 O   0  0  0  0  0  0  0  0  0  0  0  0
    7.1667   -2.0875    0.0000 O   0  0  0  0  0  0  0  0  0  0  0  0
    4.3042   -4.5542    0.0000 C   0  0  0  0  0  0  0  0  0  0  0  0
    2.8667   -5.9917    0.0000 C   0  0  0  0  0  0  0  0  0  0  0  0
    4.3042   -2.0792    0.0000 O   0  0  0  0  0  0  0  0  0  0  0  0
    2.2292   -6.5292    0.0000 O   0  0  0  0  0  0  0  0  0  0  0  0
    8.5792   -5.4000    0.0000 O   0  0  0  0  0  0  0  0  0  0  0  0
    3.6000   -4.1417    0.0000 C   0  0  0  0  0  0  0  0  0  0  0  0
    8.5875   -4.5750    0.0000 C   0  0  0  0  0  0  0  0  0  0  0  0
    3.6000   -3.3167    0.0000 C   0  0  0  0  0  0  0  0  0  0  0  0
  2  1  1  0
  3  6  1  0
  4 11  1  1
  5  2  1  0
  6  1  2  0
  7  3  1  0
  8  4  1  0
  9  8  1  0
 10  4  1  0
 11  3  1  0
 12 14  1  0
 13  1  1  0
 14 10  1  0
 15  6  1  0
 16  2  2  0
 17  5  2  0
 18 13  2  0
 19 18  1  0
  8 20  1  6
  9 21  1  1
 12 22  1  6
 23 13  1  0
 24  7  2  0
 14 25  1  1
 26 17  1  0
 27 25  1  0
 28 30  1  0
 29 24  1  0
 30 19  1  0
 31 17  1  0
 15 19  2  0
  5  7  1  0
 31 29  2  0
  9 12  1  0
M  END
>  <ID>  (1567) 


>  <MOLENAME>  (1567) 
ALOIN

>  <therap>  (1567) 
cathartic, laxative

>  <ref>  (1567) 
J Chem Soc 1932: 2573

>  <cas#>  (1567) 
5133-19-7

>  <source>  (1567) 
aloe

>  <status>  (1567) 
BAN

>  <tradename>  (1567) 
nan

>  <SMILES>  (1567) 
O=C1c2c(O)cccc2C(O[C@@H]2O[C@H](CO)[C@@H](O)[C@H](O)[C@H]2O)c2c1c(O)cc(CO)c2

>  <standardized_failed>  (1567) 
False

$$$$

     RDKit          2D

 11 11  0  0  0  0  0  0  0  0999 V2000
    7.1250   -3.8417    0.0000 S   0  0  0  0  0  0  0  0  0  0  0  0
    6.4125   -3.4292    0.0000 N   0  0  0  0  0  0  0  0  0  0  0  0
    6.7042   -4.5542    0.0000 O   0  0  0  0  0  0  0  0  0  0  0  0
    7.7042   -4.4250    0.0000 O   0  0  0  0  0  0  0  0  0  0  0  0
    7.8375   -3.4292    0.0000 O   0  0  0  0  0  0  0  0  0  0  0  0
    5.7000   -3.8375    0.0000 C   0  0  0  0  0  0  0  0  0  0  0  0
    4.9875   -3.4167    0.0000 C   0  0  0  0  0  0  0  0  0  0  0  0
    5.7000   -4.6625    0.0000 C   0  0  0  0  0  0  0  0  0  0  0  0
    4.2792   -3.8375    0.0000 C   0  0  0  0  0  0  0  0  0  0  0  0
    4.9875   -5.0667    0.0000 C   0  0  0  0  0  0  0  0  0  0  0  0
    4.2792   -4.6625    0.0000 C   0  0  0  0  0  0  0  0  0  0  0  0
  2  1  1  0
  3  1  2  0
  4  1  2  0
  5  1  1  0
  6  2  1  0
  7  6  1  0
  8  6  1  0
  9  7  1  0
 10  8  1  0
 11  9  1  0
 10 11  1  0
M  END
>  <ID>  (1568) 


>  <MOLENAME>  (1568) 
CYCLAMIC ACID

>  <therap>  (1568) 
sweetener

>  <ref>  (1568) 
Food Cosmet Toxicol 6:313 (1968); 11:735 (1973)

>  <cas#>  (1568) 
100-88-9

>  <source>  (1568) 
synthetic

>  <status>  (1568) 
USAN, BAN

>  <tradename>  (1568) 
HEXAMIC ACID

>  <SMILES>  (1568) 
O=S(=O)(O)NC1CCCCC1

>  <standardized_failed>  (1568) 
False

$$$$

     RDKit          2D

 10 10  0  0  0  0  0  0  0  0999 V2000
    4.7667   -3.5542    0.0000 C   0  0  0  0  0  0  0  0  0  0  0  0
    5.4792   -1.4917    0.0000 C   0  0  0  0  0  0  0  0  0  0  0  0
    4.7667   -1.0792    0.0000 C   0  0  0  0  0  0  0  0  0  0  0  0
    4.7667   -2.7292    0.0000 C   0  0  0  0  0  0  0  0  0  0  0  0
    5.4792   -2.3167    0.0000 C   0  0  0  0  0  0  0  0  0  0  0  0
    5.4792   -3.9667    0.0000 C   0  0  0  0  0  0  0  0  0  0  0  0
    4.0542   -2.3167    0.0000 C   0  0  0  0  0  0  0  0  0  0  0  0
    4.0542   -1.4917    0.0000 C   0  0  0  0  0  0  0  0  0  0  0  0
    4.0542   -3.9667    0.0000 C   0  0  0  0  0  0  0  0  0  0  0  0
    4.7667   -0.2542    0.0000 C   0  0  0  0  0  0  0  0  0  0  0  0
  2  5  1  0
  3  8  1  0
  4  1  1  0
  5  4  1  0
  6  1  2  0
  7  4  1  0
  8  7  1  0
  9  1  1  0
 10  3  1  0
  2  3  2  0
M  END
>  <ID>  (1569) 


>  <MOLENAME>  (1569) 
d-LIMONENE

>  <therap>  (1569) 
skin irritant, sensitizer

>  <ref>  (1569) 
Helv Chim Acta 46:1480 (1963)

>  <cas#>  (1569) 
138-86-7

>  <source>  (1569) 
Citrus oils, 

>  <status>  (1569) 
JAN

>  <tradename>  (1569) 
nan

>  <SMILES>  (1569) 
C=C(C)C1CC=C(C)CC1

>  <standardized_failed>  (1569) 
False

$$$$

     RDKit          2D

 41 45  0  0  0  0  0  0  0  0999 V2000
    4.9042   -3.5208    0.0000 C   0  0  0  0  0  0  0  0  0  0  0  0
    5.6167   -3.9333    0.0000 C   0  0  0  0  0  0  0  0  0  0  0  0
    5.6042   -7.2292    0.0000 C   0  0  0  0  0  0  0  0  0  0  0  0
    5.6083   -6.4042    0.0000 N   0  0  0  0  0  0  0  0  0  0  0  0
    5.6208   -4.7583    0.0000 N   0  0  0  0  0  0  0  0  0  0  0  0
    4.9083   -2.6958    0.0000 C   0  0  0  0  0  0  0  0  0  0  0  0
    4.2000   -3.9292    0.0000 C   0  0  0  0  0  0  0  0  0  0  0  0
    6.3375   -3.5208    0.0000 N   0  0  0  0  0  0  0  0  0  0  0  0
    4.1917   -2.2875    0.0000 C   0  0  0  0  0  0  0  0  0  0  0  0
    6.3167   -7.6458    0.0000 N   0  0  0  0  0  0  0  0  0  0  0  0
    3.4875   -3.5167    0.0000 C   0  0  0  0  0  0  0  0  0  0  0  0
    3.4917   -2.7000    0.0000 C   0  0  0  0  0  0  0  0  0  0  0  0
    5.6292   -2.2875    0.0000 N   0  0  0  0  0  0  0  0  0  0  0  0
   -0.0708   -2.3042    0.0000 N   0  0  0  0  0  0  0  0  0  0  0  0
    6.3375   -2.7000    0.0000 C   0  0  0  0  0  0  0  0  0  0  0  0
    4.8875   -7.6375    0.0000 O   0  0  0  0  0  0  0  0  0  0  0  0
    6.3250   -5.9958    0.0000 C   0  0  0  0  0  0  0  0  0  0  0  0
    4.8958   -5.9875    0.0000 C   0  0  0  0  0  0  0  0  0  0  0  0
    6.3333   -5.1667    0.0000 C   0  0  0  0  0  0  0  0  0  0  0  0
    4.9000   -5.1667    0.0000 C   0  0  0  0  0  0  0  0  0  0  0  0
    7.0333   -7.2417    0.0000 C   0  0  0  0  0  0  0  0  0  0  0  0
    9.1833   -6.0208    0.0000 O   0  0  0  0  0  0  0  0  0  0  0  0
    8.4667   -6.4292    0.0000 C   0  0  0  0  0  0  0  0  0  0  0  0
    2.7792   -2.2917    0.0000 O   0  0  0  0  0  0  0  0  0  0  0  0
    2.7750   -3.9292    0.0000 O   0  0  0  0  0  0  0  0  0  0  0  0
    7.0333   -6.4208    0.0000 C   0  0  0  0  0  0  0  0  0  0  0  0
    7.7417   -7.6625    0.0000 C   0  0  0  0  0  0  0  0  0  0  0  0
    8.4583   -7.2542    0.0000 C   0  0  0  0  0  0  0  0  0  0  0  0
    7.7500   -6.0125    0.0000 C   0  0  0  0  0  0  0  0  0  0  0  0
    0.6417   -2.7125    0.0000 C   0  0  0  0  0  0  0  0  0  0  0  0
    1.3542   -2.3000    0.0000 C   0  0  0  0  0  0  0  0  0  0  0  0
   -0.0750   -1.4833    0.0000 C   0  0  0  0  0  0  0  0  0  0  0  0
   -0.7833   -2.7167    0.0000 C   0  0  0  0  0  0  0  0  0  0  0  0
    9.8958   -6.4375    0.0000 C   0  0  0  0  0  0  0  0  0  0  0  0
    2.0667   -2.7042    0.0000 C   0  0  0  0  0  0  0  0  0  0  0  0
    2.0583   -3.5167    0.0000 C   0  0  0  0  0  0  0  0  0  0  0  0
   10.6125   -6.0250    0.0000 C   0  0  0  0  0  0  0  0  0  0  0  0
    9.8917   -7.2625    0.0000 C   0  0  0  0  0  0  0  0  0  0  0  0
   -1.5000   -2.3083    0.0000 C   0  0  0  0  0  0  0  0  0  0  0  0
   -0.7875   -1.0708    0.0000 C   0  0  0  0  0  0  0  0  0  0  0  0
   -1.5000   -1.4833    0.0000 C   0  0  0  0  0  0  0  0  0  0  0  0
  2  1  1  0
  3  4  1  0
  4 17  1  0
  5  2  1  0
  6  1  1  0
  7  1  2  0
  8  2  2  0
  9  6  2  0
 10  3  1  0
 11  7  1  0
 12  9  1  0
 13  6  1  0
 14 30  1  0
 15 13  2  0
 16  3  2  0
 17 19  1  0
 18 20  1  0
 19  5  1  0
 20  5  1  0
 21 10  1  0
 22 23  1  0
 23 29  2  0
 24 12  1  0
 25 11  1  0
 26 21  2  0
 27 21  1  0
 28 27  2  0
 29 26  1  0
 30 31  1  0
 31 35  1  0
 32 14  1  0
 33 14  1  0
 34 22  1  0
 35 24  1  0
 36 25  1  0
 37 34  1  0
 38 34  1  0
 39 33  1  0
 40 32  1  0
 41 40  1  0
 15  8  1  0
 11 12  2  0
  4 18  1  0
 23 28  1  0
 39 41  1  0
M  END
>  <ID>  (1570) 


>  <MOLENAME>  (1570) 
TANDUTINIB

>  <therap>  (1570) 
tyrosine kinase inhibitor

>  <ref>  (1570) 
Blood 108:3674 (2006); Cell Cycle 8:2621 (2009)

>  <cas#>  (1570) 
387867-13-2

>  <source>  (1570) 
synthetic; CT-535-18, MLN-518

>  <status>  (1570) 
USAN, INN

>  <tradename>  (1570) 
nan

>  <SMILES>  (1570) 
COc1c(OCCCN2CCCCC2)cc2ncnc(N3CCN(C(=O)Nc4ccc(OC(C)C)cc4)CC3)c2c1

>  <standardized_failed>  (1570) 
False

$$$$

     RDKit          2D

 23 24  0  0  0  0  0  0  0  0999 V2000
    4.8750   -1.9542    0.0000 C   0  0  0  0  0  0  0  0  0  0  0  0
    1.3083   -3.2000    0.0000 C   0  0  0  0  0  0  0  0  0  0  0  0
    5.5875   -2.3583    0.0000 N   0  0  0  0  0  0  0  0  0  0  0  0
    1.3083   -2.3750    0.0000 C   0  0  0  0  0  0  0  0  0  0  0  0
    2.0208   -3.6125    0.0000 C   0  0  0  0  0  0  0  0  0  0  0  0
    4.1625   -2.3667    0.0000 C   0  0  0  0  0  0  0  0  0  0  0  0
    3.4500   -1.9542    0.0000 C   0  0  0  0  0  0  0  0  0  0  0  0
    2.7375   -2.3708    0.0000 C   0  0  0  0  0  0  0  0  0  0  0  0
    2.7375   -3.2000    0.0000 C   0  0  0  0  0  0  0  0  0  0  0  0
    2.0208   -1.9583    0.0000 C   0  0  0  0  0  0  0  0  0  0  0  0
    4.8708   -1.1292    0.0000 O   0  0  0  0  0  0  0  0  0  0  0  0
    0.5917   -3.6125    0.0000 O   0  0  0  0  0  0  0  0  0  0  0  0
    0.5958   -1.9625    0.0000 O   0  0  0  0  0  0  0  0  0  0  0  0
    2.0208   -4.4375    0.0000 O   0  0  0  0  0  0  0  0  0  0  0  0
    6.3000   -1.9500    0.0000 C   0  0  0  0  0  0  0  0  0  0  0  0
    5.4083   -3.0250    0.0000 C   0  0  0  0  0  0  0  0  0  0  0  0
    0.5917   -4.4375    0.0000 C   0  0  0  0  0  0  0  0  0  0  0  0
    0.5958   -1.1375    0.0000 C   0  0  0  0  0  0  0  0  0  0  0  0
    2.7375   -4.8500    0.0000 C   0  0  0  0  0  0  0  0  0  0  0  0
    5.9167   -3.6458    0.0000 C   0  0  0  0  0  0  0  0  0  0  0  0
    6.9792   -2.1500    0.0000 C   0  0  0  0  0  0  0  0  0  0  0  0
    7.2458   -2.9083    0.0000 C   0  0  0  0  0  0  0  0  0  0  0  0
    6.7542   -3.6083    0.0000 C   0  0  0  0  0  0  0  0  0  0  0  0
  2  5  2  0
  3  1  1  0
  4 10  2  0
  5  9  1  0
  6  1  1  0
  7  6  2  0
  8  7  1  0
  9  8  2  0
 10  8  1  0
 11  1  2  0
 12  2  1  0
 13  4  1  0
 14  5  1  0
 15  3  1  0
 16  3  1  0
 17 12  1  0
 18 13  1  0
 19 14  1  0
 20 16  1  0
 21 15  1  0
 22 21  1  0
 23 20  1  0
 22 23  1  0
  2  4  1  0
M  END
>  <ID>  (1571) 


>  <MOLENAME>  (1571) 
CINOCTRAMIDE

>  <therap>  (1571) 
anesthetic

>  <ref>  (1571) 
Fr. (1969), FR 1581285 19690912

>  <cas#>  (1571) 
28598-08-5

>  <source>  (1571) 
synthetic

>  <status>  (1571) 
INN

>  <tradename>  (1571) 
nan

>  <SMILES>  (1571) 
COc1cc(/C=C/C(=O)N2CCCCCC2)cc(OC)c1OC

>  <standardized_failed>  (1571) 
False

$$$$

     RDKit          2D

  9  9  0  0  0  0  0  0  0  0999 V2000
    5.4292   -5.2042    0.0000 N   0  0  0  0  0  0  0  0  0  0  0  0
    4.7667   -5.6875    0.0000 C   0  0  0  0  0  0  0  0  0  0  0  0
    6.1000   -5.6875    0.0000 C   0  0  0  0  0  0  0  0  0  0  0  0
    6.8917   -5.4667    0.0000 C   0  0  0  0  0  0  0  0  0  0  0  0
    7.1000   -4.6708    0.0000 O   0  0  0  0  0  0  0  0  0  0  0  0
    3.9833   -5.4333    0.0000 O   0  0  0  0  0  0  0  0  0  0  0  0
    5.8417   -6.4750    0.0000 C   0  0  0  0  0  0  0  0  0  0  0  0
    5.0167   -6.4750    0.0000 C   0  0  0  0  0  0  0  0  0  0  0  0
    7.4833   -6.0458    0.0000 O   0  0  0  0  0  0  0  0  0  0  0  0
  2  1  1  0
  3  1  1  0
  3  4  1  6
  5  4  2  0
  6  2  2  0
  7  3  1  0
  8  2  1  0
  9  4  1  0
  7  8  1  0
M  END
>  <ID>  (1572) 


>  <MOLENAME>  (1572) 
PIDOLIC ACID

>  <therap>  (1572) 
nan

>  <ref>  (1572) 
Biochem Biophys Res Commun 81:176 (1978)

>  <cas#>  (1572) 
98-79-3

>  <source>  (1572) 
vegetables, fruits and grasses

>  <status>  (1572) 
INN, BAN

>  <tradename>  (1572) 
nan

>  <SMILES>  (1572) 
O=C1CC[C@@H](C(=O)O)N1

>  <standardized_failed>  (1572) 
False

$$$$

     RDKit          2D

 21 21  0  0  0  0  0  0  0  0999 V2000
    8.3917   -2.5458    0.0000 C   0  0  0  0  0  0  0  0  0  0  0  0
    4.8250   -2.9500    0.0000 C   0  0  0  0  0  0  0  0  0  0  0  0
    8.3917   -1.7167    0.0000 C   0  0  0  0  0  0  0  0  0  0  0  0
    5.5375   -2.5417    0.0000 N   0  0  0  0  0  0  0  0  0  0  0  0
    7.6750   -2.9583    0.0000 C   0  0  0  0  0  0  0  0  0  0  0  0
    4.8208   -3.7750    0.0000 O   0  0  0  0  0  0  0  0  0  0  0  0
    7.6750   -1.3042    0.0000 C   0  0  0  0  0  0  0  0  0  0  0  0
    6.9625   -2.5458    0.0000 C   0  0  0  0  0  0  0  0  0  0  0  0
    6.2500   -2.9542    0.0000 C   0  0  0  0  0  0  0  0  0  0  0  0
    6.9625   -1.7167    0.0000 C   0  0  0  0  0  0  0  0  0  0  0  0
    9.1083   -2.9583    0.0000 O   0  0  0  0  0  0  0  0  0  0  0  0
    9.1042   -1.3000    0.0000 O   0  0  0  0  0  0  0  0  0  0  0  0
    4.1125   -2.5375    0.0000 C   0  0  0  0  0  0  0  0  0  0  0  0
    9.1083   -3.7833    0.0000 C   0  0  0  0  0  0  0  0  0  0  0  0
    3.4000   -2.9417    0.0000 C   0  0  0  0  0  0  0  0  0  0  0  0
   -0.1625   -2.5250    0.0000 C   0  0  0  0  0  0  0  0  0  0  0  0
    0.5500   -2.9375    0.0000 C   0  0  0  0  0  0  0  0  0  0  0  0
    2.6875   -2.5292    0.0000 C   0  0  0  0  0  0  0  0  0  0  0  0
    1.9750   -2.9417    0.0000 C   0  0  0  0  0  0  0  0  0  0  0  0
    1.2625   -2.5292    0.0000 C   0  0  0  0  0  0  0  0  0  0  0  0
   -0.8792   -2.9333    0.0000 C   0  0  0  0  0  0  0  0  0  0  0  0
  2  4  1  0
  3  1  2  0
  4  9  1  0
  5  1  1  0
  6  2  2  0
  7  3  1  0
  8  5  2  0
  9  8  1  0
 10  7  2  0
 11  1  1  0
 12  3  1  0
 13  2  1  0
 14 11  1  0
 15 13  1  0
 16 17  1  0
 17 20  1  0
 18 15  1  0
 19 18  1  0
 20 19  1  0
 21 16  1  0
  8 10  1  0
M  END
>  <ID>  (1573) 


>  <MOLENAME>  (1573) 
NONIVAMIDE

>  <therap>  (1573) 
analgesic (topical), depletes Substance P

>  <ref>  (1573) 
J Nat Prod 59:425 (1996)

>  <cas#>  (1573) 
2444-46-4

>  <source>  (1573) 
Capsicum spp; synthetic

>  <status>  (1573) 
INN

>  <tradename>  (1573) 
nan

>  <SMILES>  (1573) 
CCCCCCCCC(=O)NCc1cc(OC)c(O)cc1

>  <standardized_failed>  (1573) 
False

$$$$

     RDKit          2D

  7  6  0  0  0  0  0  0  0  0999 V2000
    5.1667   -0.9292    0.0000 C   0  0  0  0  0  0  0  0  0  0  0  0
    5.8792   -0.5125    0.0000 C   0  0  0  0  0  0  0  0  0  0  0  0
    4.4542   -1.3417    0.0000 C   0  0  0  0  0  0  0  0  0  0  0  0
    5.0375   -1.9250    0.0000 O   0  0  0  0  0  0  0  0  0  0  0  0
    3.7417   -0.9292    0.0000 C   0  0  0  0  0  0  0  0  0  0  0  0
    4.0375   -2.0542    0.0000 C   0  0  0  0  0  0  0  0  0  0  0  0
    3.0292   -1.3417    0.0000 C   0  0  0  0  0  0  0  0  0  0  0  0
  2  1  3  0
  3  1  1  0
  4  3  1  0
  5  3  1  0
  6  3  1  0
  7  5  1  0
M  END
>  <ID>  (1574) 


>  <MOLENAME>  (1574) 
MEPARFYLON

>  <therap>  (1574) 
hypnotic, sedative

>  <ref>  (1574) 
Pharm J 2:184 (1976)

>  <cas#>  (1574) 
77-75-8

>  <source>  (1574) 
synthetic

>  <status>  (1574) 
INN

>  <tradename>  (1574) 
ALLOTROPAL

>  <SMILES>  (1574) 
C#CC(C)(O)CC

>  <standardized_failed>  (1574) 
False

$$$$

     RDKit          2D

 17 19  0  0  0  0  0  0  0  0999 V2000
    7.8917   -1.6500    0.0000 C   0  0  0  0  0  0  0  0  0  0  0  0
    7.1750   -1.2417    0.0000 O   0  0  0  0  0  0  0  0  0  0  0  0
    6.4625   -1.6625    0.0000 C   0  0  0  0  0  0  0  0  0  0  0  0
    5.7500   -2.8917    0.0000 N   0  0  0  0  0  0  0  0  0  0  0  0
    6.4625   -2.4875    0.0000 C   0  0  0  0  0  0  0  0  0  0  0  0
    5.7500   -1.2417    0.0000 C   0  0  0  0  0  0  0  0  0  0  0  0
    7.8958   -2.4750    0.0000 O   0  0  0  0  0  0  0  0  0  0  0  0
    8.6000   -1.2333    0.0000 C   0  0  0  0  0  0  0  0  0  0  0  0
    5.0417   -1.6625    0.0000 C   0  0  0  0  0  0  0  0  0  0  0  0
    5.3292   -1.9542    0.0000 C   0  0  0  0  0  0  0  0  0  0  0  0
    5.0417   -2.4875    0.0000 C   0  0  0  0  0  0  0  0  0  0  0  0
    5.9000   -2.2417    0.0000 C   0  0  0  0  0  0  0  0  0  0  0  0
    9.3167   -1.6417    0.0000 C   0  0  0  0  0  0  0  0  0  0  0  0
    8.5917   -0.4125    0.0000 C   0  0  0  0  0  0  0  0  0  0  0  0
    9.3000    0.0083    0.0000 C   0  0  0  0  0  0  0  0  0  0  0  0
   10.0292   -1.2250    0.0000 C   0  0  0  0  0  0  0  0  0  0  0  0
   10.0208   -0.4000    0.0000 C   0  0  0  0  0  0  0  0  0  0  0  0
  2  1  1  0
  3  2  1  0
  4  5  1  0
  5  3  1  0
  6  3  1  0
  7  1  2  0
  8  1  1  0
  9  6  1  0
 10  6  1  0
 11  9  1  0
 12 10  1  0
 13  8  2  0
 14  8  1  0
 15 14  2  0
 16 13  1  0
 17 15  1  0
 17 16  2  0
  4 12  1  0
  4 11  1  0
M  END
>  <ID>  (1575) 


>  <MOLENAME>  (1575) 
BENZOCLIDINE

>  <therap>  (1575) 
antihypertensive

>  <ref>  (1575) 
Pharmaceut Chem J 11:60 (1977)

>  <cas#>  (1575) 
16852-81-6

>  <source>  (1575) 
synthetic

>  <status>  (1575) 
INN

>  <tradename>  (1575) 
OXYLIDINE

>  <SMILES>  (1575) 
O=C(OC1CN2CCC1CC2)c1ccccc1

>  <standardized_failed>  (1575) 
False

$$$$

     RDKit          2D

 13 12  0  0  0  0  0  0  0  0999 V2000
    5.0375   -5.1042    0.0000 C   0  0  0  0  0  0  0  0  0  0  0  0
    5.7542   -4.6917    0.0000 N   0  0  0  0  0  0  0  0  0  0  0  0
    7.1792   -4.6917    0.0000 C   0  0  0  0  0  0  0  0  0  0  0  0
    6.4625   -5.1042    0.0000 C   0  0  0  0  0  0  0  0  0  0  0  0
    5.7500   -7.1708    0.0000 C   0  0  0  0  0  0  0  0  0  0  0  0
    7.1792   -3.8667    0.0000 O   0  0  0  0  0  0  0  0  0  0  0  0
    5.0375   -7.5833    0.0000 O   0  0  0  0  0  0  0  0  0  0  0  0
    4.3250   -4.6917    0.0000 C   0  0  0  0  0  0  0  0  0  0  0  0
    6.4625   -5.9292    0.0000 C   0  0  0  0  0  0  0  0  0  0  0  0
    5.0333   -5.9333    0.0000 N   0  0  0  0  0  0  0  0  0  0  0  0
    5.7500   -6.3458    0.0000 C   0  0  0  0  0  0  0  0  0  0  0  0
    7.8958   -5.1083    0.0000 O   0  0  0  0  0  0  0  0  0  0  0  0
    6.4667   -7.5792    0.0000 O   0  0  0  0  0  0  0  0  0  0  0  0
  2  1  1  0
  3  4  1  0
  4  2  1  0
  5 11  1  0
  6  3  2  0
  7  5  2  0
  8  1  2  0
  4  9  1  6
 10  1  1  0
 11  9  1  0
 12  3  1  0
 13  5  1  0
M  END
>  <ID>  (1576) 


>  <MOLENAME>  (1576) 
CARGLUMIC ACID

>  <therap>  (1576) 
carbamylphosphate synthetase activator

>  <ref>  (1576) 
Eur J Pediatr 143:196 (1985); J Inher Metab Dis 19:220 (1996); Eur J Pediatr 157:996 (1998)

>  <cas#>  (1576) 
1188-38-1

>  <source>  (1576) 
synthetic

>  <status>  (1576) 
INN

>  <tradename>  (1576) 
CARBAGLU

>  <SMILES>  (1576) 
C=C(N)N[C@@H](CCC(=O)O)C(=O)O

>  <standardized_failed>  (1576) 
False

$$$$

     RDKit          2D

 11 10  0  0  0  0  0  0  0  0999 V2000
    2.2417   -4.9875    0.0000 P   0  0  0  0  0  0  0  0  0  0  0  0
    4.3792   -5.4000    0.0000 C   0  0  0  0  0  0  0  0  0  0  0  0
    5.0917   -4.9875    0.0000 C   0  0  0  0  0  0  0  0  0  0  0  0
    3.6667   -4.9875    0.0000 C   0  0  0  0  0  0  0  0  0  0  0  0
    2.9542   -5.4000    0.0000 O   0  0  0  0  0  0  0  0  0  0  0  0
    2.2417   -4.1625    0.0000 O   0  0  0  0  0  0  0  0  0  0  0  0
    5.0917   -4.1625    0.0000 O   0  0  0  0  0  0  0  0  0  0  0  0
    1.5250   -4.5750    0.0000 O   0  0  0  0  0  0  0  0  0  0  0  0
    1.5292   -5.4000    0.0000 O   0  0  0  0  0  0  0  0  0  0  0  0
    4.3750   -6.2250    0.0000 N   0  0  0  0  0  0  0  0  0  0  0  0
    5.8042   -5.4000    0.0000 O   0  0  0  0  0  0  0  0  0  0  0  0
  2  4  1  0
  3  2  1  0
  4  5  1  0
  5  1  1  0
  6  1  2  0
  7  3  2  0
  8  1  1  0
  9  1  1  0
  2 10  1  1
 11  3  1  0
M  END
>  <ID>  (1577) 


>  <MOLENAME>  (1577) 
DEXFOSFOSERINE

>  <therap>  (1577) 
roborant

>  <ref>  (1577) 
Plant Physiol. (1977), 60(1), 109-14; Pharmacology (1976), 14(1), 52-7

>  <cas#>  (1577) 
407-41-0

>  <source>  (1577) 
synthetic

>  <status>  (1577) 
INN

>  <tradename>  (1577) 
nan

>  <SMILES>  (1577) 
N[C@@H](COP(=O)(O)O)C(=O)O

>  <standardized_failed>  (1577) 
False

$$$$

     RDKit          2D

  7  6  0  0  0  0  0  0  0  0999 V2000
    2.9792   -0.3125    0.0000 C   0  0  0  0  0  0  0  0  0  0  0  0
    2.9792   -1.1375    0.0000 S   0  0  0  0  0  0  0  0  0  0  0  0
    2.2667    0.1000    0.0000 N   0  0  0  0  0  0  0  0  0  0  0  0
    3.6958    0.1000    0.0000 N   0  0  0  0  0  0  0  0  0  0  0  0
    0.8375    0.1000    0.0000 C   0  0  0  0  0  0  0  0  0  0  0  0
    0.1250   -0.3125    0.0000 C   0  0  0  0  0  0  0  0  0  0  0  0
    1.5500   -0.3125    0.0000 C   0  0  0  0  0  0  0  0  0  0  0  0
  2  1  2  0
  3  1  1  0
  4  1  1  0
  5  7  1  0
  6  5  2  0
  7  3  1  0
M  END
>  <ID>  (1578) 


>  <MOLENAME>  (1578) 
ALLYLTHIOUREA

>  <therap>  (1578) 
chelating agent

>  <ref>  (1578) 
Appl Microbiol Biotechnol 82:333 (2009)

>  <cas#>  (1578) 
109-57-9

>  <source>  (1578) 
synthetic

>  <status>  (1578) 
INN

>  <tradename>  (1578) 
nan

>  <SMILES>  (1578) 
C=CCNC(N)=S

>  <standardized_failed>  (1578) 
False

$$$$

     RDKit          2D

 15 15  0  0  0  0  0  0  0  0999 V2000
    6.2750   -2.7167    0.0000 C   0  0  0  0  0  0  0  0  0  0  0  0
    7.0625   -2.4375    0.0000 C   0  0  0  0  0  0  0  0  0  0  0  0
    6.2750   -3.5417    0.0000 N   0  0  0  0  0  0  0  0  0  0  0  0
    6.9875   -3.9542    0.0000 C   0  0  0  0  0  0  0  0  0  0  0  0
    5.6417   -2.1750    0.0000 C   0  0  0  0  0  0  0  0  0  0  0  0
    7.0708   -1.6875    0.0000 O   0  0  0  0  0  0  0  0  0  0  0  0
    6.9833   -4.7792    0.0000 O   0  0  0  0  0  0  0  0  0  0  0  0
    7.7333   -2.9167    0.0000 O   0  0  0  0  0  0  0  0  0  0  0  0
    4.9208   -2.5917    0.0000 C   0  0  0  0  0  0  0  0  0  0  0  0
    7.7000   -3.5458    0.0000 C   0  0  0  0  0  0  0  0  0  0  0  0
    4.9208   -3.4250    0.0000 C   0  0  0  0  0  0  0  0  0  0  0  0
    4.2042   -2.1750    0.0000 C   0  0  0  0  0  0  0  0  0  0  0  0
    3.4792   -2.5917    0.0000 C   0  0  0  0  0  0  0  0  0  0  0  0
    4.2042   -3.8375    0.0000 C   0  0  0  0  0  0  0  0  0  0  0  0
    3.4792   -3.4250    0.0000 C   0  0  0  0  0  0  0  0  0  0  0  0
  2  1  1  0
  3  1  1  0
  4  3  1  0
  1  5  1  1
  6  2  2  0
  7  4  2  0
  8  2  1  0
  9  5  1  0
 10  4  1  0
 11  9  2  0
 12  9  1  0
 13 12  2  0
 14 11  1  0
 15 13  1  0
 15 14  2  0
M  END
>  <ID>  (1579) 


>  <MOLENAME>  (1579) 
AFALANINE

>  <therap>  (1579) 
antidepressant, used to prevent kidney damage

>  <ref>  (1579) 
J Lab Clin Med 105:132 (1985); Carbohydrate Polymers 64:85 (2006) 

>  <cas#>  (1579) 
2901-75-9

>  <source>  (1579) 
synthetic

>  <status>  (1579) 
INN

>  <tradename>  (1579) 
nan

>  <SMILES>  (1579) 
CC(=O)N[C@@H](Cc1ccccc1)C(=O)O

>  <standardized_failed>  (1579) 
False

$$$$

     RDKit          2D

  8  7  0  0  0  0  0  0  0  0999 V2000
    3.5792   -0.4042    0.0000 C   0  0  0  0  0  0  0  0  0  0  0  0
    4.2958    0.0083    0.0000 C   0  0  0  0  0  0  0  0  0  0  0  0
    2.8667    0.0083    0.0000 Cl  0  0  0  0  0  0  0  0  0  0  0  0
    3.5792   -1.2292    0.0000 Cl  0  0  0  0  0  0  0  0  0  0  0  0
    2.7375   -0.9042    0.0000 Cl  0  0  0  0  0  0  0  0  0  0  0  0
    5.0042    0.4333    0.0000 O   0  0  0  0  0  0  0  0  0  0  0  0
    4.2958    0.8333    0.0000 C   0  0  0  0  0  0  0  0  0  0  0  0
    5.0083   -0.4042    0.0000 C   0  0  0  0  0  0  0  0  0  0  0  0
  2  1  1  0
  3  1  1  0
  4  1  1  0
  5  1  1  0
  6  2  1  0
  7  2  1  0
  8  2  1  0
M  END
>  <ID>  (1580) 


>  <MOLENAME>  (1580) 
CHLOROBUTANOL

>  <therap>  (1580) 
antimicrobial

>  <ref>  (1580) 
Arch Int Pharmacodyn Ther 8:77 (1901)

>  <cas#>  (1580) 
57-15-8

>  <source>  (1580) 
synthetic; HOE-095K

>  <status>  (1580) 
NF, INN, BAN, JAN

>  <tradename>  (1580) 
CHLORETONE

>  <SMILES>  (1580) 
CC(C)(O)C(Cl)(Cl)Cl

>  <standardized_failed>  (1580) 
False

$$$$

     RDKit          2D

 18 19  0  0  0  0  0  0  0  0999 V2000
    5.6167   -0.6792    0.0000 C   0  0  0  0  0  0  0  0  0  0  0  0
    6.3292   -0.2625    0.0000 C   0  0  0  0  0  0  0  0  0  0  0  0
    4.9000   -0.2667    0.0000 C   0  0  0  0  0  0  0  0  0  0  0  0
    5.6167   -1.5083    0.0000 C   0  0  0  0  0  0  0  0  0  0  0  0
    4.1875   -0.6792    0.0000 C   0  0  0  0  0  0  0  0  0  0  0  0
    7.0458   -0.6708    0.0000 C   0  0  0  0  0  0  0  0  0  0  0  0
    6.3250    0.5625    0.0000 O   0  0  0  0  0  0  0  0  0  0  0  0
    7.0458   -1.4958    0.0000 C   0  0  0  0  0  0  0  0  0  0  0  0
    7.7500   -0.2542    0.0000 C   0  0  0  0  0  0  0  0  0  0  0  0
    4.1875   -1.5083    0.0000 C   0  0  0  0  0  0  0  0  0  0  0  0
    4.8958    0.5583    0.0000 O   0  0  0  0  0  0  0  0  0  0  0  0
    4.9000   -1.9208    0.0000 C   0  0  0  0  0  0  0  0  0  0  0  0
    7.7583   -1.9042    0.0000 C   0  0  0  0  0  0  0  0  0  0  0  0
    8.4667   -0.6583    0.0000 C   0  0  0  0  0  0  0  0  0  0  0  0
    8.4750   -1.4875    0.0000 C   0  0  0  0  0  0  0  0  0  0  0  0
    3.4708   -1.9208    0.0000 O   0  0  0  0  0  0  0  0  0  0  0  0
    9.1917   -1.9000    0.0000 C   0  0  0  0  0  0  0  0  0  0  0  0
    2.7583   -1.5083    0.0000 C   0  0  0  0  0  0  0  0  0  0  0  0
  2  1  1  0
  3  1  2  0
  4  1  1  0
  5  3  1  0
  6  2  1  0
  7  2  2  0
  8  6  2  0
  9  6  1  0
 10  5  2  0
 11  3  1  0
 12  4  2  0
 13  8  1  0
 14  9  2  0
 15 14  1  0
 16 10  1  0
 17 15  1  0
 18 16  1  0
 12 10  1  0
 15 13  2  0
M  END
>  <ID>  (1581) 


>  <MOLENAME>  (1581) 
MEXENEONE

>  <therap>  (1581) 
sunscreen

>  <ref>  (1581) 
Contact Dermatitis 6:222 (1980); Acta Derm Venereol  79:211 (1999)

>  <cas#>  (1581) 
1641-17-4

>  <source>  (1581) 
synthetic

>  <status>  (1581) 
INN, BAN

>  <tradename>  (1581) 
UVISTAT

>  <SMILES>  (1581) 
COc1cc(O)c(C(=O)c2ccc(C)cc2)cc1

>  <standardized_failed>  (1581) 
False

$$$$

     RDKit          2D

  9  9  0  0  0  0  0  0  0  0999 V2000
    5.8667   -2.7708    0.0000 C   0  0  0  0  0  0  0  0  0  0  0  0
    6.5833   -3.1833    0.0000 C   0  0  0  0  0  0  0  0  0  0  0  0
    5.8625   -1.9458    0.0000 O   0  0  0  0  0  0  0  0  0  0  0  0
    7.2958   -2.7667    0.0000 O   0  0  0  0  0  0  0  0  0  0  0  0
    5.1542   -3.1875    0.0000 C   0  0  0  0  0  0  0  0  0  0  0  0
    6.5833   -4.0125    0.0000 C   0  0  0  0  0  0  0  0  0  0  0  0
    8.0125   -3.1750    0.0000 C   0  0  0  0  0  0  0  0  0  0  0  0
    5.1542   -4.0125    0.0000 C   0  0  0  0  0  0  0  0  0  0  0  0
    5.8667   -4.4250    0.0000 C   0  0  0  0  0  0  0  0  0  0  0  0
  2  1  2  0
  3  1  1  0
  4  2  1  0
  5  1  1  0
  6  2  1  0
  7  4  1  0
  8  5  2  0
  9  8  1  0
  6  9  2  0
M  END
>  <ID>  (1582) 


>  <MOLENAME>  (1582) 
GUAIACOL

>  <therap>  (1582) 
expectorant

>  <ref>  (1582) 
Compr. Med. Chem. (1990), 1, 7-80.

>  <cas#>  (1582) 
90-05-1

>  <source>  (1582) 
synthesis

>  <status>  (1582) 
NF-X, JAN

>  <tradename>  (1582) 
ANASTIL

>  <SMILES>  (1582) 
COc1c(O)cccc1

>  <standardized_failed>  (1582) 
False

$$$$

     RDKit          2D

 12 11  0  0  0  0  0  0  0  0999 V2000
    4.9042   -3.8917    0.0000 C   0  0  0  0  0  0  0  0  0  0  0  0
    4.8167   -3.0750    0.0000 C   0  0  0  0  0  0  0  0  0  0  0  0
    5.6542   -4.2292    0.0000 C   0  0  0  0  0  0  0  0  0  0  0  0
    5.4875   -2.5875    0.0000 C   0  0  0  0  0  0  0  0  0  0  0  0
    4.2292   -4.3792    0.0000 O   0  0  0  0  0  0  0  0  0  0  0  0
    4.0625   -2.7375    0.0000 O   0  0  0  0  0  0  0  0  0  0  0  0
    5.7417   -5.0542    0.0000 O   0  0  0  0  0  0  0  0  0  0  0  0
    6.2417   -2.9250    0.0000 O   0  0  0  0  0  0  0  0  0  0  0  0
    7.0792   -4.0792    0.0000 O   0  0  0  0  0  0  0  0  0  0  0  0
    6.0667   -1.2792    0.0000 O   0  0  0  0  0  0  0  0  0  0  0  0
    6.3292   -3.7417    0.0000 C   0  0  0  0  0  0  0  0  0  0  0  0
    5.4000   -1.7667    0.0000 C   0  0  0  0  0  0  0  0  0  0  0  0
  2  1  1  0
  3  1  1  0
  4  2  1  0
  1  5  1  6
  2  6  1  1
  3  7  1  1
  4  8  1  1
  9 11  1  0
 10 12  1  0
 11  3  1  0
  4 12  1  0
M  END
>  <ID>  (1583) 


>  <MOLENAME>  (1583) 
SORBITOL

>  <therap>  (1583) 
sweetening agent and humectant

>  <ref>  (1583) 
Staerke 6:269, 303 (1954); 9:234 (1955)

>  <cas#>  (1583) 
50-70-4

>  <source>  (1583) 
fruits of Sorbus and Crataegus spp

>  <status>  (1583) 
NF, JAN

>  <tradename>  (1583) 
RESULAX

>  <SMILES>  (1583) 
OC[C@@H](O)[C@H](O)[C@@H](O)[C@H](O)CO

>  <standardized_failed>  (1583) 
False

$$$$

     RDKit          2D

 10 10  0  0  0  0  0  0  0  0999 V2000
    7.1667   -2.9750    0.0000 C   0  0  0  0  0  0  0  0  0  0  0  0
    7.8792   -2.5542    0.0000 S   0  0  0  0  0  0  0  0  0  0  0  0
    6.4542   -3.3875    0.0000 N   0  0  0  0  0  0  0  0  0  0  0  0
    5.0250   -3.3917    0.0000 C   0  0  0  0  0  0  0  0  0  0  0  0
    5.7375   -2.9792    0.0000 C   0  0  0  0  0  0  0  0  0  0  0  0
    5.0250   -4.2250    0.0000 C   0  0  0  0  0  0  0  0  0  0  0  0
    4.3042   -2.9792    0.0000 C   0  0  0  0  0  0  0  0  0  0  0  0
    4.3042   -4.6375    0.0000 C   0  0  0  0  0  0  0  0  0  0  0  0
    3.5917   -3.4000    0.0000 C   0  0  0  0  0  0  0  0  0  0  0  0
    3.5917   -4.2250    0.0000 C   0  0  0  0  0  0  0  0  0  0  0  0
  2  1  2  0
  3  1  2  0
  4  5  1  0
  5  3  1  0
  6  4  2  0
  7  4  1  0
  8  6  1  0
  9  7  2  0
 10  9  1  0
 10  8  2  0
M  END
>  <ID>  (1584) 


>  <MOLENAME>  (1584) 
BENZYL ISOTHIOCYANATE

>  <therap>  (1584) 
antineoplastic, antibacterial, antifungal

>  <ref>  (1584) 
J Agr Food Chem 12: 127 ( (1964)

>  <cas#>  (1584) 
622-78-6

>  <source>  (1584) 
Tropaeolum majus, Lepidium sativum and other Cruciferae

>  <status>  (1584) 
INN

>  <tradename>  (1584) 
nan

>  <SMILES>  (1584) 
S=C=NCc1ccccc1

>  <standardized_failed>  (1584) 
False

$$$$

     RDKit          2D

 13 13  0  0  0  0  0  0  0  0999 V2000
    5.3417   -2.3167    0.0000 C   0  0  0  0  0  0  0  0  0  0  0  0
    5.9917   -2.7000    0.0000 C   0  0  0  0  0  0  0  0  0  0  0  0
    5.3417   -1.5667    0.0000 O   0  0  0  0  0  0  0  0  0  0  0  0
    5.9917   -3.4417    0.0000 C   0  0  0  0  0  0  0  0  0  0  0  0
    5.3417   -3.8250    0.0000 C   0  0  0  0  0  0  0  0  0  0  0  0
    6.6417   -2.3167    0.0000 N   0  0  0  0  0  0  0  0  0  0  0  0
    4.7000   -2.6917    0.0000 O   0  0  0  0  0  0  0  0  0  0  0  0
    4.0417   -4.5750    0.0000 C   0  0  0  0  0  0  0  0  0  0  0  0
    3.3917   -4.9542    0.0000 Cl  0  0  0  0  0  0  0  0  0  0  0  0
    5.3417   -4.5750    0.0000 C   0  0  0  0  0  0  0  0  0  0  0  0
    4.6917   -3.4500    0.0000 C   0  0  0  0  0  0  0  0  0  0  0  0
    4.0417   -3.8250    0.0000 C   0  0  0  0  0  0  0  0  0  0  0  0
    4.6917   -4.9500    0.0000 C   0  0  0  0  0  0  0  0  0  0  0  0
  2  1  1  0
  3  1  2  0
  4  2  1  0
  5  4  1  0
  6  2  1  0
  7  1  1  0
  8 12  1  0
  9  8  1  0
 10  5  2  0
 11  5  1  0
 12 11  2  0
 13 10  1  0
  8 13  2  0
M  END
>  <ID>  (1585) 


>  <MOLENAME>  (1585) 
FENCLONINE

>  <therap>  (1585) 
serotonin inhibitor; tryptophan hydroxylase inhibitor

>  <ref>  (1585) 
Mol Pharmacol 3:274 (1967); Ann Intern Med 72:919 (1970); 73:607 (1970)

>  <cas#>  (1585) 
7424-00-2(dl); 14173-39-8(l)

>  <source>  (1585) 
synthetic; CP-10188, NSC-77370

>  <status>  (1585) 
USAN, INN

>  <tradename>  (1585) 
nan

>  <SMILES>  (1585) 
NC(Cc1ccc(Cl)cc1)C(=O)O

>  <standardized_failed>  (1585) 
False

$$$$

     RDKit          2D

 26 30  0  0  0  0  0  0  0  0999 V2000
    5.7417   -7.8167    0.0000 N   0  0  0  0  0  0  0  0  0  0  0  0
    5.7417   -8.6417    0.0000 C   0  0  0  0  0  0  0  0  0  0  0  0
    6.4542   -7.4042    0.0000 C   0  0  0  0  0  0  0  0  0  0  0  0
    6.4542   -6.5750    0.0000 C   0  0  0  0  0  0  0  0  0  0  0  0
    5.1250   -7.2542    0.0000 C   0  0  0  0  0  0  0  0  0  0  0  0
    7.1667   -8.6417    0.0000 C   0  0  0  0  0  0  0  0  0  0  0  0
    7.1667   -7.8167    0.0000 C   0  0  0  0  0  0  0  0  0  0  0  0
    5.6750   -6.3167    0.0000 C   0  0  0  0  0  0  0  0  0  0  0  0
    6.4542   -9.0542    0.0000 C   0  0  0  0  0  0  0  0  0  0  0  0
    5.0250   -9.0542    0.0000 C   0  0  0  0  0  0  0  0  0  0  0  0
    7.8875   -7.4042    0.0000 N   0  0  0  0  0  0  0  0  0  0  0  0
    7.1667   -6.1625    0.0000 C   0  0  0  0  0  0  0  0  0  0  0  0
    7.8875   -6.5750    0.0000 C   0  0  0  0  0  0  0  0  0  0  0  0
    6.5417   -8.4292    0.0000 O   0  0  0  0  0  0  0  0  0  0  0  0
    4.3042   -8.6417    0.0000 O   0  0  0  0  0  0  0  0  0  0  0  0
    7.8792   -9.0542    0.0000 C   0  0  0  0  0  0  0  0  0  0  0  0
    7.1667   -9.4750    0.0000 C   0  0  0  0  0  0  0  0  0  0  0  0
    5.0250   -9.8875    0.0000 O   0  0  0  0  0  0  0  0  0  0  0  0
    4.3000   -7.2542    0.0000 C   0  0  0  0  0  0  0  0  0  0  0  0
    8.6042   -7.8167    0.0000 C   0  0  0  0  0  0  0  0  0  0  0  0
    5.2667   -5.6000    0.0000 C   0  0  0  0  0  0  0  0  0  0  0  0
    8.6000   -8.6417    0.0000 C   0  0  0  0  0  0  0  0  0  0  0  0
    5.7375  -10.3000    0.0000 C   0  0  0  0  0  0  0  0  0  0  0  0
    6.4542   -9.8875    0.0000 C   0  0  0  0  0  0  0  0  0  0  0  0
    3.8875   -6.5417    0.0000 C   0  0  0  0  0  0  0  0  0  0  0  0
    4.4375   -5.5917    0.0000 C   0  0  0  0  0  0  0  0  0  0  0  0
  2  1  1  0
  3  1  1  0
  4  3  2  0
  5  1  1  0
  6  7  1  0
  7  3  1  0
  8  5  2  0
  9  2  1  0
  2 10  1  0
  7 11  1  1
 12  4  1  0
 13 11  1  0
  2 14  1  6
 15 10  2  0
 16  6  1  0
  6 17  1  6
 18 10  1  0
 19  5  1  0
 20 11  1  0
 21  8  1  0
 22 20  1  0
 23 18  1  0
 24 17  1  0
 25 19  2  0
 26 25  1  0
  8  4  1  0
  9  6  1  0
 21 26  2  0
 13 12  1  0
 22 16  1  0
M  END
>  <ID>  (1586) 


>  <MOLENAME>  (1586) 
VINCAMINE

>  <therap>  (1586) 
vasodilator

>  <ref>  (1586) 
Br J Clin Pharmacol 9:100 (1980); N Engl J Med 305:1562 (1981)

>  <cas#>  (1586) 
1617-90-9

>  <source>  (1586) 
Vinca minor

>  <status>  (1586) 
INN, BAN

>  <tradename>  (1586) 
OXICEBRAL

>  <SMILES>  (1586) 
CC[C@@]12CCCN3CCc4c([C@@H]31)n(c1c4cccc1)[C@](O)(C(=O)OC)C2

>  <standardized_failed>  (1586) 
False

$$$$

     RDKit          2D

 12 11  0  0  0  0  0  0  0  0999 V2000
    3.4167   -3.6042    0.0000 C   0  0  0  0  0  0  0  0  0  0  0  0
    5.5542   -4.0083    0.0000 C   0  0  0  0  0  0  0  0  0  0  0  0
    4.8417   -3.6042    0.0000 S   0  0  0  0  0  0  0  0  0  0  0  0
    4.1292   -4.0167    0.0000 S   0  0  0  0  0  0  0  0  0  0  0  0
    3.4125   -2.7792    0.0000 S   0  0  0  0  0  0  0  0  0  0  0  0
    5.5542   -4.8375    0.0000 S   0  0  0  0  0  0  0  0  0  0  0  0
    2.7042   -4.0167    0.0000 O   0  0  0  0  0  0  0  0  0  0  0  0
    6.2667   -3.6000    0.0000 O   0  0  0  0  0  0  0  0  0  0  0  0
    1.9917   -3.6125    0.0000 C   0  0  0  0  0  0  0  0  0  0  0  0
    6.9792   -4.0042    0.0000 C   0  0  0  0  0  0  0  0  0  0  0  0
    1.2792   -4.0250    0.0000 C   0  0  0  0  0  0  0  0  0  0  0  0
    7.6917   -3.5917    0.0000 C   0  0  0  0  0  0  0  0  0  0  0  0
  2  3  1  0
  3  4  1  0
  4  1  1  0
  5  1  2  0
  6  2  2  0
  7  1  1  0
  8  2  1  0
  9  7  1  0
 10  8  1  0
 11  9  1  0
 12 10  1  0
M  END
>  <ID>  (1587) 


>  <MOLENAME>  (1587) 
DIXANTHOGEN

>  <therap>  (1587) 
ectoparasitoside, insecticide

>  <ref>  (1587) 
J Agric Food Chem 19:200 (1971); Residue Rev 10:97 (1965)

>  <cas#>  (1587) 
502-55-6

>  <source>  (1587) 
synthetic; EXD

>  <status>  (1587) 
INN, JAN

>  <tradename>  (1587) 
AULIGEN

>  <SMILES>  (1587) 
CCOC(=S)SSC(=S)OCC

>  <standardized_failed>  (1587) 
False

$$$$

     RDKit          2D

 14 14  0  0  0  0  0  0  0  0999 V2000
    3.6292   -1.6042    0.0000 C   0  0  0  0  0  0  0  0  0  0  0  0
    4.4542   -1.6042    0.0000 C   0  0  0  0  0  0  0  0  0  0  0  0
    3.2167   -0.8875    0.0000 O   0  0  0  0  0  0  0  0  0  0  0  0
    3.2250   -2.3167    0.0000 N   0  0  0  0  0  0  0  0  0  0  0  0
    2.4042   -2.3167    0.0000 C   0  0  0  0  0  0  0  0  0  0  0  0
    5.6792   -0.8917    0.0000 Cl  0  0  0  0  0  0  0  0  0  0  0  0
    1.1750   -3.0292    0.0000 C   0  0  0  0  0  0  0  0  0  0  0  0
    4.8625   -0.8917    0.0000 C   0  0  0  0  0  0  0  0  0  0  0  0
    1.9917   -3.0292    0.0000 C   0  0  0  0  0  0  0  0  0  0  0  0
    0.7625   -3.7417    0.0000 C   0  0  0  0  0  0  0  0  0  0  0  0
    0.7625   -2.3167    0.0000 C   0  0  0  0  0  0  0  0  0  0  0  0
   -0.0625   -3.7417    0.0000 C   0  0  0  0  0  0  0  0  0  0  0  0
   -0.0625   -2.3208    0.0000 C   0  0  0  0  0  0  0  0  0  0  0  0
   -0.4708   -3.0333    0.0000 C   0  0  0  0  0  0  0  0  0  0  0  0
  2  1  1  0
  3  1  2  0
  4  1  1  0
  5  4  1  0
  6  8  1  0
  7  9  1  0
  8  2  1  0
  9  5  1  0
 10  7  2  0
 11  7  1  0
 12 10  1  0
 13 11  2  0
 14 12  2  0
 14 13  1  0
M  END
>  <ID>  (1588) 


>  <MOLENAME>  (1588) 
FENACLON

>  <therap>  (1588) 
antipsychotic, antiepileptic

>  <ref>  (1588) 
Farmakol. Toksikol. (1967), 30(3), 301-3; Farmakol. Toksikol. (1965), 28(3), 290-1. ; Farmakol. Toksikol. (1957), 20(No. 4), 20-6.

>  <cas#>  (1588) 
306-20-7

>  <source>  (1588) 
synthetic

>  <status>  (1588) 
INN

>  <tradename>  (1588) 
PHENACON

>  <SMILES>  (1588) 
O=C(CCCl)NCCc1ccccc1

>  <standardized_failed>  (1588) 
False

$$$$

     RDKit          2D

 16 16  0  0  0  0  0  0  0  0999 V2000
    7.1917   -2.0000    0.0000 C   0  0  0  0  0  0  0  0  0  0  0  0
    7.9042   -1.5875    0.0000 C   0  0  0  0  0  0  0  0  0  0  0  0
    6.4792   -1.5917    0.0000 C   0  0  0  0  0  0  0  0  0  0  0  0
    4.3417   -2.0125    0.0000 C   0  0  0  0  0  0  0  0  0  0  0  0
    7.7792   -2.5792    0.0000 N   0  0  0  0  0  0  0  0  0  0  0  0
    4.3417   -2.8375    0.0000 C   0  0  0  0  0  0  0  0  0  0  0  0
    5.0542   -1.5917    0.0000 C   0  0  0  0  0  0  0  0  0  0  0  0
    5.7667   -2.0042    0.0000 C   0  0  0  0  0  0  0  0  0  0  0  0
    7.9042   -0.7625    0.0000 O   0  0  0  0  0  0  0  0  0  0  0  0
    5.0542   -3.2500    0.0000 C   0  0  0  0  0  0  0  0  0  0  0  0
    8.6292   -1.9917    0.0000 O   0  0  0  0  0  0  0  0  0  0  0  0
    5.7667   -2.8375    0.0000 C   0  0  0  0  0  0  0  0  0  0  0  0
    7.5667   -3.3792    0.0000 N   0  0  0  0  0  0  0  0  0  0  0  0
    3.6292   -1.6000    0.0000 O   0  0  0  0  0  0  0  0  0  0  0  0
    6.7792   -2.7125    0.0000 C   0  0  0  0  0  0  0  0  0  0  0  0
    3.6167   -3.2500    0.0000 O   0  0  0  0  0  0  0  0  0  0  0  0
  2  1  1  0
  3  1  1  0
  4  7  2  0
  1  5  1  0
  6 10  2  0
  7  8  1  0
  8  3  1  0
  9  2  2  0
 10 12  1  0
 11  2  1  0
 12  8  2  0
 13  5  1  0
 14  4  1  0
  1 15  1  6
 16  6  1  0
  6  4  1  0
M  END
>  <ID>  (1589) 


>  <MOLENAME>  (1589) 
CARBIDOPA

>  <therap>  (1589) 
decarboxylase inhibitor, antiparkinsonism

>  <ref>  (1589) 
J Pharmacol Exp Therap 148:252 (1962); 172:409 (1970)

>  <cas#>  (1589) 
38821-49-7, 28860-95-9 [anhydrous]

>  <source>  (1589) 
synthetic

>  <status>  (1589) 
USP, INN, BAN, JAN

>  <tradename>  (1589) 
LODOSYN

>  <SMILES>  (1589) 
C[C@@](Cc1ccc(O)c(O)c1)(NN)C(=O)O

>  <standardized_failed>  (1589) 
False

$$$$

     RDKit          2D

  8  8  0  0  0  0  0  0  0  0999 V2000
    5.8000   -3.3875    0.0000 N   0  0  0  0  0  0  0  0  0  0  0  0
    5.8000   -2.5583    0.0000 C   0  0  0  0  0  0  0  0  0  0  0  0
    7.2292   -2.5500    0.0000 O   0  0  0  0  0  0  0  0  0  0  0  0
    5.0833   -3.8000    0.0000 C   0  0  0  0  0  0  0  0  0  0  0  0
    6.5125   -2.1417    0.0000 C   0  0  0  0  0  0  0  0  0  0  0  0
    5.0833   -2.1458    0.0000 C   0  0  0  0  0  0  0  0  0  0  0  0
    4.3708   -3.3875    0.0000 C   0  0  0  0  0  0  0  0  0  0  0  0
    4.3708   -2.5625    0.0000 C   0  0  0  0  0  0  0  0  0  0  0  0
  2  1  2  0
  3  5  1  0
  4  1  1  0
  5  2  1  0
  6  2  1  0
  7  4  2  0
  8  7  1  0
  8  6  2  0
M  END
>  <ID>  (1590) 


>  <MOLENAME>  (1590) 
PICONOL

>  <therap>  (1590) 
decongestant

>  <ref>  (1590) 
Biol. Pharm. Bull. (1999), 22(11), 1234-1236; J. Med. Chem. (1979), 22(7), 840-4

>  <cas#>  (1590) 
586-98-1

>  <source>  (1590) 
synthetic

>  <status>  (1590) 
INN

>  <tradename>  (1590) 
nan

>  <SMILES>  (1590) 
OCc1ncccc1

>  <standardized_failed>  (1590) 
False

$$$$

     RDKit          2D

 14 15  0  0  0  0  0  0  0  0999 V2000
    3.2958   -3.0458    0.0000 C   0  0  0  0  0  0  0  0  0  0  0  0
    4.0125   -3.4542    0.0000 N   0  0  0  0  0  0  0  0  0  0  0  0
    2.5833   -3.4625    0.0000 C   0  0  0  0  0  0  0  0  0  0  0  0
    3.2917   -2.2208    0.0000 O   0  0  0  0  0  0  0  0  0  0  0  0
    1.8667   -4.7042    0.0000 N   0  0  0  0  0  0  0  0  0  0  0  0
    5.4375   -4.2750    0.0000 O   0  0  0  0  0  0  0  0  0  0  0  0
    2.5833   -4.2917    0.0000 C   0  0  0  0  0  0  0  0  0  0  0  0
    4.0125   -4.2792    0.0000 C   0  0  0  0  0  0  0  0  0  0  0  0
    4.7208   -3.0375    0.0000 C   0  0  0  0  0  0  0  0  0  0  0  0
    1.8667   -3.0500    0.0000 C   0  0  0  0  0  0  0  0  0  0  0  0
    1.1542   -4.2917    0.0000 C   0  0  0  0  0  0  0  0  0  0  0  0
    5.4375   -3.4500    0.0000 C   0  0  0  0  0  0  0  0  0  0  0  0
    4.7250   -4.6875    0.0000 C   0  0  0  0  0  0  0  0  0  0  0  0
    1.1542   -3.4625    0.0000 C   0  0  0  0  0  0  0  0  0  0  0  0
  2  1  1  0
  3  1  1  0
  4  1  2  0
  5  7  2  0
  6 12  1  0
  7  3  1  0
  8  2  1  0
  9  2  1  0
 10  3  2  0
 11 14  2  0
 12  9  1  0
 13  8  1  0
 14 10  1  0
  6 13  1  0
  5 11  1  0
M  END
>  <ID>  (1591) 


>  <MOLENAME>  (1591) 
NICOPHOLINE

>  <therap>  (1591) 
antitrypanosomal

>  <ref>  (1591) 
Bioorganic Med Chem Ltrs 16:1898 (2006)

>  <cas#>  (1591) 
492-85-3

>  <source>  (1591) 
synthetic

>  <status>  (1591) 
INN

>  <tradename>  (1591) 
nan

>  <SMILES>  (1591) 
O=C(c1cccnc1)N1CCOCC1

>  <standardized_failed>  (1591) 
False

$$$$

     RDKit          2D

 17 18  0  0  0  0  0  0  0  0999 V2000
    3.5125   -2.1125    0.0000 C   0  0  0  0  0  0  0  0  0  0  0  0
    4.2292   -2.5208    0.0000 C   0  0  0  0  0  0  0  0  0  0  0  0
    2.8000   -2.5292    0.0000 C   0  0  0  0  0  0  0  0  0  0  0  0
    3.5083   -1.2875    0.0000 O   0  0  0  0  0  0  0  0  0  0  0  0
    4.9417   -2.1083    0.0000 C   0  0  0  0  0  0  0  0  0  0  0  0
    1.3708   -2.5292    0.0000 N   0  0  0  0  0  0  0  0  0  0  0  0
    5.6417   -0.8708    0.0000 N   0  0  0  0  0  0  0  0  0  0  0  0
    2.0833   -2.1167    0.0000 C   0  0  0  0  0  0  0  0  0  0  0  0
    3.6417   -3.1042    0.0000 C   0  0  0  0  0  0  0  0  0  0  0  0
    4.8125   -3.1042    0.0000 C   0  0  0  0  0  0  0  0  0  0  0  0
    4.9333   -1.2875    0.0000 C   0  0  0  0  0  0  0  0  0  0  0  0
    2.8000   -3.3583    0.0000 C   0  0  0  0  0  0  0  0  0  0  0  0
    6.3667   -1.2792    0.0000 C   0  0  0  0  0  0  0  0  0  0  0  0
    1.3708   -3.3583    0.0000 C   0  0  0  0  0  0  0  0  0  0  0  0
    5.6542   -2.5208    0.0000 C   0  0  0  0  0  0  0  0  0  0  0  0
    2.0833   -3.7708    0.0000 C   0  0  0  0  0  0  0  0  0  0  0  0
    6.3667   -2.1042    0.0000 C   0  0  0  0  0  0  0  0  0  0  0  0
  2  1  1  0
  3  1  1  0
  4  1  2  0
  5  2  1  0
  6  8  2  0
  7 11  2  0
  8  3  1  0
  9  2  1  0
 10  2  1  0
 11  5  1  0
 12  3  2  0
 13  7  1  0
 14  6  1  0
 15  5  2  0
 16 12  1  0
 17 15  1  0
 16 14  2  0
 13 17  2  0
M  END
>  <ID>  (1592) 


>  <MOLENAME>  (1592) 
METYRAPONE

>  <therap>  (1592) 
diagnostic aid

>  <ref>  (1592) 
J. Steroid Biochem. Mol. Biol. (1994), 49(4-6), 261-7; Science (1958), 128, 478-80; Experientia (1958), 14, 151-2

>  <cas#>  (1592) 
54-36-4

>  <source>  (1592) 
synthetic

>  <status>  (1592) 
USP, INN, BAN

>  <tradename>  (1592) 
METOPIRONE

>  <SMILES>  (1592) 
CC(C)(C(=O)c1cccnc1)c1cccnc1

>  <standardized_failed>  (1592) 
False

$$$$

     RDKit          2D

 22 24  0  0  0  0  0  0  0  0999 V2000
    4.9125   -4.4250    0.0000 C   0  0  0  0  0  0  0  0  0  0  0  0
    4.9167   -5.2542    0.0000 C   0  0  0  0  0  0  0  0  0  0  0  0
    5.6333   -5.6625    0.0000 N   0  0  0  0  0  0  0  0  0  0  0  0
    4.1958   -4.0167    0.0000 C   0  0  0  0  0  0  0  0  0  0  0  0
    3.4875   -4.4333    0.0000 C   0  0  0  0  0  0  0  0  0  0  0  0
    6.3417   -4.4125    0.0000 C   0  0  0  0  0  0  0  0  0  0  0  0
    6.3500   -5.2458    0.0000 C   0  0  0  0  0  0  0  0  0  0  0  0
    4.2042   -5.6708    0.0000 O   0  0  0  0  0  0  0  0  0  0  0  0
    5.6250   -4.0083    0.0000 C   0  0  0  0  0  0  0  0  0  0  0  0
    3.4875   -5.2583    0.0000 C   0  0  0  0  0  0  0  0  0  0  0  0
    2.7708   -4.0208    0.0000 C   0  0  0  0  0  0  0  0  0  0  0  0
    7.0542   -3.9917    0.0000 C   0  0  0  0  0  0  0  0  0  0  0  0
    2.0583   -4.4375    0.0000 C   0  0  0  0  0  0  0  0  0  0  0  0
    4.1917   -3.1917    0.0000 O   0  0  0  0  0  0  0  0  0  0  0  0
    2.7708   -5.6750    0.0000 C   0  0  0  0  0  0  0  0  0  0  0  0
    7.0458   -3.1667    0.0000 O   0  0  0  0  0  0  0  0  0  0  0  0
    2.0583   -5.2625    0.0000 C   0  0  0  0  0  0  0  0  0  0  0  0
    7.0667   -5.6542    0.0000 N   0  0  0  0  0  0  0  0  0  0  0  0
    7.7708   -4.4000    0.0000 O   0  0  0  0  0  0  0  0  0  0  0  0
    1.3458   -4.0250    0.0000 C   0  0  0  0  0  0  0  0  0  0  0  0
    0.6292   -4.4375    0.0000 C   0  0  0  0  0  0  0  0  0  0  0  0
    1.3458   -3.2000    0.0000 C   0  0  0  0  0  0  0  0  0  0  0  0
  2  1  1  0
  3  2  2  0
  4  1  1  0
  5  4  1  0
  6  9  1  0
  7  3  1  0
  8  2  1  0
  9  1  2  0
 10  8  1  0
 11  5  2  0
 12  6  1  0
 13 11  1  0
 14  4  2  0
 15 10  2  0
 16 12  2  0
 17 15  1  0
 18  7  1  0
 19 12  1  0
 20 13  1  0
 21 20  1  0
 22 20  1  0
 10  5  1  0
  6  7  2  0
 17 13  2  0
M  END
>  <ID>  (1593) 


>  <MOLENAME>  (1593) 
AMLEXANOX

>  <therap>  (1593) 
anti-allergic

>  <ref>  (1593) 
Int Arch Allergy Appl Immunol 79:231 (1986); 82:66 (1987); J Oral Maxillofac Surg 51:243 (1993)

>  <cas#>  (1593) 
68302-57-8

>  <source>  (1593) 
synthetic; AA-673, CHX-3673

>  <status>  (1593) 
USAN, INN, BAN, JAN

>  <tradename>  (1593) 
APHTHAZOL

>  <SMILES>  (1593) 
CC(C)c1ccc2oc3nc(N)c(C(=O)O)cc3c(=O)c2c1

>  <standardized_failed>  (1593) 
False

$$$$

     RDKit          2D

 18 20  0  0  0  0  0  0  0  0999 V2000
    5.7250   -5.2875    0.0000 C   0  0  0  0  0  0  0  0  0  0  0  0
    7.1542   -5.2875    0.0000 C   0  0  0  0  0  0  0  0  0  0  0  0
    6.4375   -4.8750    0.0000 C   0  0  0  0  0  0  0  0  0  0  0  0
    7.7667   -4.7292    0.0000 O   0  0  0  0  0  0  0  0  0  0  0  0
    5.7250   -6.1167    0.0000 C   0  0  0  0  0  0  0  0  0  0  0  0
    7.4292   -3.9792    0.0000 C   0  0  0  0  0  0  0  0  0  0  0  0
    5.0125   -6.5250    0.0000 C   0  0  0  0  0  0  0  0  0  0  0  0
    6.6125   -4.0667    0.0000 C   0  0  0  0  0  0  0  0  0  0  0  0
    6.4375   -6.5250    0.0000 C   0  0  0  0  0  0  0  0  0  0  0  0
    7.1542   -6.1125    0.0000 C   0  0  0  0  0  0  0  0  0  0  0  0
    7.8417   -3.2542    0.0000 O   0  0  0  0  0  0  0  0  0  0  0  0
    5.0125   -4.8750    0.0000 C   0  0  0  0  0  0  0  0  0  0  0  0
    5.7250   -4.4542    0.0000 C   0  0  0  0  0  0  0  0  0  0  0  0
    7.9542   -5.5042    0.0000 C   0  0  0  0  0  0  0  0  0  0  0  0
    4.2917   -6.1125    0.0000 C   0  0  0  0  0  0  0  0  0  0  0  0
    4.2917   -5.2875    0.0000 C   0  0  0  0  0  0  0  0  0  0  0  0
    4.4167   -7.1042    0.0000 C   0  0  0  0  0  0  0  0  0  0  0  0
    5.5792   -7.1042    0.0000 C   0  0  0  0  0  0  0  0  0  0  0  0
  2  3  1  0
  3  1  1  0
  2  4  1  0
  5  1  1  0
  6  8  1  0
  7  5  1  0
  3  8  1  1
  5  9  1  1
 10  9  1  0
 11  6  2  0
 12  1  1  0
  1 13  1  1
  2 14  1  1
 15 16  1  0
 16 12  1  0
 17  7  1  0
 18  7  1  0
 15  7  1  0
  2 10  1  0
  6  4  1  0
M  END
>  <ID>  (1594) 


>  <MOLENAME>  (1594) 
SCLAREOLIDE

>  <therap>  (1594) 
antimicrobial

>  <ref>  (1594) 
J Soc Chim Tunisie 4:903 (1996); Pak J Pharm Sci 20:146 (2007)

>  <cas#>  (1594) 
564-20-5

>  <source>  (1594) 
Phaseolus vulgaris L. Salvia sclarea 

>  <status>  (1594) 
experimental

>  <tradename>  (1594) 
nan

>  <SMILES>  (1594) 
CC1(C)CCC[C@@]2(C)[C@H]1CC[C@@]1(C)OC(=O)C[C@H]21

>  <standardized_failed>  (1594) 
False

$$$$

     RDKit          2D

 24 25  0  0  0  0  0  0  0  0999 V2000
    5.0375   -4.4375    0.0000 C   0  0  0  0  0  0  0  0  0  0  0  0
    5.0375   -3.6125    0.0000 C   0  0  0  0  0  0  0  0  0  0  0  0
    4.3167   -4.8542    0.0000 C   0  0  0  0  0  0  0  0  0  0  0  0
    5.7542   -4.8500    0.0000 C   0  0  0  0  0  0  0  0  0  0  0  0
    6.4667   -4.4292    0.0000 C   0  0  0  0  0  0  0  0  0  0  0  0
    4.3167   -3.2000    0.0000 C   0  0  0  0  0  0  0  0  0  0  0  0
    3.6042   -4.4417    0.0000 C   0  0  0  0  0  0  0  0  0  0  0  0
    8.6000   -3.1792    0.0000 C   0  0  0  0  0  0  0  0  0  0  0  0
    6.4625   -3.6042    0.0000 C   0  0  0  0  0  0  0  0  0  0  0  0
    3.6042   -3.6125    0.0000 C   0  0  0  0  0  0  0  0  0  0  0  0
    8.5917   -2.3542    0.0000 C   0  0  0  0  0  0  0  0  0  0  0  0
    7.8875   -3.6000    0.0000 C   0  0  0  0  0  0  0  0  0  0  0  0
    5.7542   -5.6750    0.0000 O   0  0  0  0  0  0  0  0  0  0  0  0
    7.1667   -3.1875    0.0000 C   0  0  0  0  0  0  0  0  0  0  0  0
    7.8750   -1.9500    0.0000 C   0  0  0  0  0  0  0  0  0  0  0  0
    5.7500   -3.1917    0.0000 O   0  0  0  0  0  0  0  0  0  0  0  0
    4.3250   -5.6792    0.0000 O   0  0  0  0  0  0  0  0  0  0  0  0
    9.3167   -3.5917    0.0000 O   0  0  0  0  0  0  0  0  0  0  0  0
    7.1667   -2.3667    0.0000 C   0  0  0  0  0  0  0  0  0  0  0  0
    9.3042   -1.9375    0.0000 O   0  0  0  0  0  0  0  0  0  0  0  0
    2.8917   -3.2042    0.0000 O   0  0  0  0  0  0  0  0  0  0  0  0
    3.6125   -6.0917    0.0000 C   0  0  0  0  0  0  0  0  0  0  0  0
    9.3000   -1.1125    0.0000 C   0  0  0  0  0  0  0  0  0  0  0  0
    2.1792   -3.6167    0.0000 C   0  0  0  0  0  0  0  0  0  0  0  0
  2  1  2  0
  3  1  1  0
  4  1  1  0
  5  4  1  0
  6  2  1  0
  7  3  2  0
  8 12  2  0
  9  5  2  0
 10  7  1  0
 11 15  2  0
 12 14  1  0
 13  4  2  0
 14  9  1  0
 15 19  1  0
 16  2  1  0
 17  3  1  0
 18  8  1  0
 19 14  2  0
 20 11  1  0
 21 10  1  0
 22 17  1  0
 23 20  1  0
 24 21  1  0
 10  6  2  0
 11  8  1  0
M  END
>  <ID>  (1595) 


>  <MOLENAME>  (1595) 
2'.3-DIHYDROXY-4.4'.6'-TRIMETHOXYCHALCONE

>  <therap>  (1595) 
nan

>  <ref>  (1595) 
Annalen 550:146 (1942); Planta 95:133 (1970); Phytochemistry 13:1561 (1974)

>  <cas#>  (1595) 
38186-71-9

>  <source>  (1595) 
Merrillia caloxylon

>  <status>  (1595) 
undetermined activity

>  <tradename>  (1595) 
nan

>  <SMILES>  (1595) 
COc1cc(O)c(C(=O)/C=C/c2ccc(OC)c(O)c2)c(OC)c1

>  <standardized_failed>  (1595) 
False

$$$$

     RDKit          2D

 25 27  0  0  0  0  0  0  0  0999 V2000
    5.0417   -2.8792    0.0000 C   0  0  0  0  0  0  0  0  0  0  0  0
    5.7542   -3.2917    0.0000 N   0  0  0  0  0  0  0  0  0  0  0  0
    6.4667   -2.0500    0.0000 C   0  0  0  0  0  0  0  0  0  0  0  0
    6.4750   -2.8750    0.0000 C   0  0  0  0  0  0  0  0  0  0  0  0
    5.0417   -2.0542    0.0000 C   0  0  0  0  0  0  0  0  0  0  0  0
    5.7500   -1.6417    0.0000 C   0  0  0  0  0  0  0  0  0  0  0  0
    4.3250   -3.3000    0.0000 C   0  0  0  0  0  0  0  0  0  0  0  0
    4.3250   -1.6417    0.0000 C   0  0  0  0  0  0  0  0  0  0  0  0
    7.2625   -3.1250    0.0000 O   0  0  0  0  0  0  0  0  0  0  0  0
    3.6125   -2.8875    0.0000 C   0  0  0  0  0  0  0  0  0  0  0  0
    7.2500   -1.7875    0.0000 C   0  0  0  0  0  0  0  0  0  0  0  0
    7.7417   -2.4500    0.0000 C   0  0  0  0  0  0  0  0  0  0  0  0
    0.7542   -2.8792    0.0000 C   0  0  0  0  0  0  0  0  0  0  0  0
    1.4667   -3.2917    0.0000 C   0  0  0  0  0  0  0  0  0  0  0  0
    2.8917   -3.3000    0.0000 O   0  0  0  0  0  0  0  0  0  0  0  0
    3.6125   -2.0625    0.0000 C   0  0  0  0  0  0  0  0  0  0  0  0
    2.1792   -2.8875    0.0000 C   0  0  0  0  0  0  0  0  0  0  0  0
    5.7417   -0.8167    0.0000 O   0  0  0  0  0  0  0  0  0  0  0  0
    4.3167   -4.1250    0.0000 O   0  0  0  0  0  0  0  0  0  0  0  0
    0.7542   -2.0542    0.0000 O   0  0  0  0  0  0  0  0  0  0  0  0
    1.4667   -4.1167    0.0000 O   0  0  0  0  0  0  0  0  0  0  0  0
    0.0417   -3.2917    0.0000 C   0  0  0  0  0  0  0  0  0  0  0  0
    0.7542   -3.7042    0.0000 C   0  0  0  0  0  0  0  0  0  0  0  0
    3.6000   -4.5292    0.0000 C   0  0  0  0  0  0  0  0  0  0  0  0
    5.0250   -0.4042    0.0000 C   0  0  0  0  0  0  0  0  0  0  0  0
  2  1  2  0
  3  6  1  0
  4  2  1  0
  5  1  1  0
  6  5  2  0
  7  1  1  0
  8  5  1  0
  9  4  1  0
 10  7  2  0
 11  3  1  0
 12  9  1  0
 13 14  1  0
 14 17  1  0
 15 10  1  0
 16 10  1  0
 17 15  1  0
 18  6  1  0
 19  7  1  0
 20 13  1  0
 21 14  1  0
 22 13  1  0
 23 13  1  0
 24 19  1  0
 25 18  1  0
  3  4  2  0
  8 16  2  0
 12 11  2  0
M  END
>  <ID>  (1596) 


>  <MOLENAME>  (1596) 
EVOXINE

>  <therap>  (1596) 
nan

>  <ref>  (1596) 
Aust J Sci Res, Ser A 5:401 (1952); Planta Med 42:400 (1981)

>  <cas#>  (1596) 
522-11-2

>  <source>  (1596) 
Evodia xanthoxyloides

>  <status>  (1596) 
undetermined activity

>  <tradename>  (1596) 
nan

>  <SMILES>  (1596) 
COc1c2ccc(OCC(O)C(C)(C)O)c(OC)c2nc2c1cco2

>  <standardized_failed>  (1596) 
False

$$$$

     RDKit          2D

 44 45  0  0  0  0  0  0  0  0999 V2000
    0.1667   -2.3667    0.0000 C   0  0  0  0  0  0  0  0  0  0  0  0
   13.7042   -2.0000    0.0000 C   0  0  0  0  0  0  0  0  0  0  0  0
   -0.5458   -1.9542    0.0000 C   0  0  0  0  0  0  0  0  0  0  0  0
   14.4125   -2.4125    0.0000 C   0  0  0  0  0  0  0  0  0  0  0  0
   -1.2583   -2.3667    0.0000 C   0  0  0  0  0  0  0  0  0  0  0  0
   15.1167   -2.0042    0.0000 C   0  0  0  0  0  0  0  0  0  0  0  0
    0.1667   -3.1917    0.0000 C   0  0  0  0  0  0  0  0  0  0  0  0
   13.7042   -1.1792    0.0000 C   0  0  0  0  0  0  0  0  0  0  0  0
    0.8792   -1.9625    0.0000 C   0  0  0  0  0  0  0  0  0  0  0  0
   12.9917   -2.4042    0.0000 C   0  0  0  0  0  0  0  0  0  0  0  0
   15.1292   -1.1875    0.0000 C   0  0  0  0  0  0  0  0  0  0  0  0
   -1.2583   -3.1917    0.0000 C   0  0  0  0  0  0  0  0  0  0  0  0
   14.4167   -0.7667    0.0000 C   0  0  0  0  0  0  0  0  0  0  0  0
   -0.5458   -3.6042    0.0000 C   0  0  0  0  0  0  0  0  0  0  0  0
   12.2792   -1.9917    0.0000 C   0  0  0  0  0  0  0  0  0  0  0  0
    1.5917   -2.3750    0.0000 C   0  0  0  0  0  0  0  0  0  0  0  0
    3.7292   -1.9667    0.0000 C   0  0  0  0  0  0  0  0  0  0  0  0
   10.1417   -2.4000    0.0000 C   0  0  0  0  0  0  0  0  0  0  0  0
    2.3042   -1.9667    0.0000 C   0  0  0  0  0  0  0  0  0  0  0  0
   11.5667   -2.4042    0.0000 C   0  0  0  0  0  0  0  0  0  0  0  0
   -1.9708   -1.9542    0.0000 O   0  0  0  0  0  0  0  0  0  0  0  0
   15.8292   -2.4250    0.0000 O   0  0  0  0  0  0  0  0  0  0  0  0
    5.1542   -1.9750    0.0000 C   0  0  0  0  0  0  0  0  0  0  0  0
    8.7167   -2.3917    0.0000 C   0  0  0  0  0  0  0  0  0  0  0  0
   10.8542   -1.9917    0.0000 C   0  0  0  0  0  0  0  0  0  0  0  0
    3.0167   -2.3792    0.0000 C   0  0  0  0  0  0  0  0  0  0  0  0
    9.4292   -1.9875    0.0000 C   0  0  0  0  0  0  0  0  0  0  0  0
    4.4417   -2.3792    0.0000 C   0  0  0  0  0  0  0  0  0  0  0  0
    8.0042   -1.9792    0.0000 C   0  0  0  0  0  0  0  0  0  0  0  0
    5.8667   -2.3875    0.0000 C   0  0  0  0  0  0  0  0  0  0  0  0
    6.5792   -1.9792    0.0000 C   0  0  0  0  0  0  0  0  0  0  0  0
    7.2917   -2.3917    0.0000 C   0  0  0  0  0  0  0  0  0  0  0  0
   15.8417   -0.7792    0.0000 O   0  0  0  0  0  0  0  0  0  0  0  0
   -1.9708   -3.6042    0.0000 O   0  0  0  0  0  0  0  0  0  0  0  0
   -0.5458   -1.1292    0.0000 C   0  0  0  0  0  0  0  0  0  0  0  0
   14.4042   -3.2375    0.0000 C   0  0  0  0  0  0  0  0  0  0  0  0
   13.0042   -1.1875    0.0000 C   0  0  0  0  0  0  0  0  0  0  0  0
   13.7000   -0.3542    0.0000 C   0  0  0  0  0  0  0  0  0  0  0  0
    0.1792   -3.8667    0.0000 C   0  0  0  0  0  0  0  0  0  0  0  0
    1.0542   -3.2167    0.0000 C   0  0  0  0  0  0  0  0  0  0  0  0
   11.5625   -3.2292    0.0000 C   0  0  0  0  0  0  0  0  0  0  0  0
    2.3042   -1.1417    0.0000 C   0  0  0  0  0  0  0  0  0  0  0  0
    5.1542   -1.1500    0.0000 C   0  0  0  0  0  0  0  0  0  0  0  0
    8.7125   -3.2167    0.0000 C   0  0  0  0  0  0  0  0  0  0  0  0
  2 10  1  0
  3  1  2  0
  4  2  2  0
  5  3  1  0
  6  4  1  0
  7  1  1  0
  8  2  1  0
  9  1  1  0
 10 15  2  0
 11 13  1  0
 12 14  1  0
 13  8  1  0
 14  7  1  0
 15 20  1  0
 16  9  2  0
 17 26  1  0
 18 27  2  0
 19 16  1  0
 20 25  2  0
 21  5  2  0
 22  6  2  0
 23 28  1  0
 24 29  2  0
 25 18  1  0
 26 19  2  0
 27 24  1  0
 28 17  2  0
 29 32  1  0
 30 23  2  0
 31 30  1  0
 32 31  2  0
 33 11  1  0
 34 12  1  0
 35  3  1  0
 36  4  1  0
 37  8  1  0
 38  8  1  0
 39  7  1  0
 40  7  1  0
 41 20  1  0
 42 19  1  0
 43 23  1  0
 44 24  1  0
  5 12  1  0
  6 11  1  0
M  END
>  <ID>  (1597) 


>  <MOLENAME>  (1597) 
ASTAXANTHIN

>  <therap>  (1597) 
nan

>  <ref>  (1597) 
Nature 184: 1714 (1959)

>  <cas#>  (1597) 
71772-51-5

>  <source>  (1597) 
Carotenoid pigment plant and animal sources

>  <status>  (1597) 
undetermined activity

>  <tradename>  (1597) 
nan

>  <SMILES>  (1597) 
CC1=C(/C=C/C(C)=C/C=C/C(C)=C/C=C/C=C(C)/C=C/C=C(C)/C=C/C2=C(C)C(=O)C(O)CC2(C)C)C(C)(C)CC(O)C1=O

>  <standardized_failed>  (1597) 
False

$$$$

     RDKit          2D

 20 20  0  0  0  0  0  0  0  0999 V2000
    8.7292   -5.5250    0.0000 C   0  0  0  0  0  0  0  0  0  0  0  0
    7.9375   -5.7417    0.0000 O   0  0  0  0  0  0  0  0  0  0  0  0
    1.4167   -2.3042    0.0000 C   0  0  0  0  0  0  0  0  0  0  0  0
    0.5917   -2.3042    0.0000 C   0  0  0  0  0  0  0  0  0  0  0  0
    9.3167   -6.1042    0.0000 O   0  0  0  0  0  0  0  0  0  0  0  0
    1.6750   -1.5167    0.0000 C   0  0  0  0  0  0  0  0  0  0  0  0
    8.9417   -4.7250    0.0000 C   0  0  0  0  0  0  0  0  0  0  0  0
    0.3417   -1.5167    0.0000 C   0  0  0  0  0  0  0  0  0  0  0  0
    2.4667   -1.3042    0.0000 C   0  0  0  0  0  0  0  0  0  0  0  0
    1.0042   -1.0292    0.0000 C   0  0  0  0  0  0  0  0  0  0  0  0
    8.3542   -4.1417    0.0000 C   0  0  0  0  0  0  0  0  0  0  0  0
    3.0542   -1.8792    0.0000 C   0  0  0  0  0  0  0  0  0  0  0  0
    7.1917   -2.9792    0.0000 C   0  0  0  0  0  0  0  0  0  0  0  0
    7.9875   -2.7667    0.0000 C   0  0  0  0  0  0  0  0  0  0  0  0
    8.5667   -3.3500    0.0000 C   0  0  0  0  0  0  0  0  0  0  0  0
    3.8500   -1.6667    0.0000 C   0  0  0  0  0  0  0  0  0  0  0  0
    4.4292   -2.2500    0.0000 C   0  0  0  0  0  0  0  0  0  0  0  0
    5.2292   -2.0375    0.0000 C   0  0  0  0  0  0  0  0  0  0  0  0
    5.8125   -2.6167    0.0000 C   0  0  0  0  0  0  0  0  0  0  0  0
    6.6042   -2.4042    0.0000 C   0  0  0  0  0  0  0  0  0  0  0  0
  2  1  2  0
  3  6  1  0
  4  3  2  0
  5  1  1  0
  6  9  1  0
  7  1  1  0
  8 10  1  0
  9 12  1  0
 10  6  1  0
 11  7  1  0
 12 16  1  0
 13 14  1  0
 14 15  1  0
 15 11  1  0
 16 17  1  0
 17 18  1  0
 18 19  1  0
 19 20  1  0
 20 13  1  0
  8  4  1  0
M  END
>  <ID>  (1598) 


>  <MOLENAME>  (1598) 
CHAULMOOGRIC ACID

>  <therap>  (1598) 
antibacterial (mycobacteria), antileprotic

>  <ref>  (1598) 
JACS 47:2727 (1925); J Chromatography 39: 182 (1969); Am Rev Respir Dis 111:703 (1975); Tubercle 59:135 (1978)

>  <cas#>  (1598) 
502-30-7

>  <source>  (1598) 
Hydnocarpus and Oncola spp

>  <status>  (1598) 
experimental

>  <tradename>  (1598) 
nan

>  <SMILES>  (1598) 
O=C(O)CCCCCCCCCCCCC1C=CCC1

>  <standardized_failed>  (1598) 
False

$$$$

     RDKit          2D

 31 36  0  0  0  0  0  0  0  0999 V2000
    6.5667   -3.3875    0.0000 C   0  0  0  0  0  0  0  0  0  0  0  0
    5.6792   -3.9000    0.0000 C   0  0  0  0  0  0  0  0  0  0  0  0
    3.9167   -4.9167    0.0000 C   0  0  0  0  0  0  0  0  0  0  0  0
    3.9042   -3.9000    0.0000 C   0  0  0  0  0  0  0  0  0  0  0  0
    6.5667   -2.3667    0.0000 C   0  0  0  0  0  0  0  0  0  0  0  0
    6.7792   -4.3792    0.0000 O   0  0  0  0  0  0  0  0  0  0  0  0
    5.6792   -4.9167    0.0000 C   0  0  0  0  0  0  0  0  0  0  0  0
    7.5417   -3.6875    0.0000 C   0  0  0  0  0  0  0  0  0  0  0  0
    4.8042   -5.4292    0.0000 C   0  0  0  0  0  0  0  0  0  0  0  0
    4.7792   -3.3875    0.0000 C   0  0  0  0  0  0  0  0  0  0  0  0
    7.5167   -2.0375    0.0000 C   0  0  0  0  0  0  0  0  0  0  0  0
    3.0417   -5.4292    0.0000 C   0  0  0  0  0  0  0  0  0  0  0  0
    3.0167   -3.3875    0.0000 C   0  0  0  0  0  0  0  0  0  0  0  0
    8.1167   -2.8792    0.0000 C   0  0  0  0  0  0  0  0  0  0  0  0
    7.5042   -1.1750    0.0000 C   0  0  0  0  0  0  0  0  0  0  0  0
    5.6792   -1.8542    0.0000 C   0  0  0  0  0  0  0  0  0  0  0  0
    2.1417   -4.9167    0.0000 C   0  0  0  0  0  0  0  0  0  0  0  0
    2.1417   -3.9000    0.0000 C   0  0  0  0  0  0  0  0  0  0  0  0
    4.7792   -2.3667    0.0000 C   0  0  0  0  0  0  0  0  0  0  0  0
    6.5792   -5.4542    0.0000 O   0  0  0  0  0  0  0  0  0  0  0  0
    7.7292    0.4750    0.0000 O   0  0  0  0  0  0  0  0  0  0  0  0
    8.1917   -0.4375    0.0000 C   0  0  0  0  0  0  0  0  0  0  0  0
    6.5917   -0.7167    0.0000 C   0  0  0  0  0  0  0  0  0  0  0  0
    4.8042   -6.4500    0.0000 O   0  0  0  0  0  0  0  0  0  0  0  0
    6.7292    0.2750    0.0000 C   0  0  0  0  0  0  0  0  0  0  0  0
    1.2667   -5.4542    0.0000 O   0  0  0  0  0  0  0  0  0  0  0  0
    5.6667   -2.8417    0.0000 C   0  0  0  0  0  0  0  0  0  0  0  0
    3.8917   -2.9292    0.0000 C   0  0  0  0  0  0  0  0  0  0  0  0
    6.5667   -1.3167    0.0000 C   0  0  0  0  0  0  0  0  0  0  0  0
    2.1667   -5.9667    0.0000 C   0  0  0  0  0  0  0  0  0  0  0  0
    3.9167   -5.9375    0.0000 C   0  0  0  0  0  0  0  0  0  0  0  0
  2  1  1  0
  3  4  1  0
  4 10  1  0
  5  1  1  0
  1  6  1  1
  7  2  1  0
  8  1  1  0
  9  7  1  0
 10  2  1  0
 11  5  1  0
 12  3  1  0
 13  4  1  0
  8 14  1  1
 11 15  1  0
 16  5  1  0
 17 18  1  0
 18 13  2  0
 19 16  1  0
 20  7  2  0
 21 22  1  0
 22 15  2  0
 23 15  1  0
 24  9  1  0
 25 23  2  0
 26 17  2  0
  2 27  1  1
  4 28  1  1
  5 29  1  6
 30 12  1  0
 31 12  1  0
  8  6  1  0
 11 14  1  6
 10 19  1  0
  9  3  2  0
 25 21  1  0
 17 12  1  0
M  END
>  <ID>  (1599) 


>  <MOLENAME>  (1599) 
CEDRELONE

>  <therap>  (1599) 
nan

>  <ref>  (1599) 
J Chem Soc 1963: 2506, 2515

>  <cas#>  (1599) 
1254-85-9

>  <source>  (1599) 
Cedrela species

>  <status>  (1599) 
undetermined activity

>  <tradename>  (1599) 
nan

>  <SMILES>  (1599) 
CC1(C)C(=O)C=C[C@@]2(C)C1=C(O)C(=O)[C@]1(C)C2CC[C@@]2(C)[C@H](c3cocc3)C[C@H]3O[C@]321

>  <standardized_failed>  (1599) 
False

$$$$

     RDKit          2D

 33 37  0  0  0  0  0  0  0  0999 V2000
    3.1917   -1.8000    0.0000 C   0  0  0  0  0  0  0  0  0  0  0  0
    3.9042   -1.3875    0.0000 C   0  0  0  0  0  0  0  0  0  0  0  0
    2.4792   -1.3667    0.0000 C   0  0  0  0  0  0  0  0  0  0  0  0
    3.9167   -0.5625    0.0000 C   0  0  0  0  0  0  0  0  0  0  0  0
    1.7667   -1.8000    0.0000 C   0  0  0  0  0  0  0  0  0  0  0  0
    1.7667   -2.6250    0.0000 C   0  0  0  0  0  0  0  0  0  0  0  0
    4.6375   -0.1500    0.0000 C   0  0  0  0  0  0  0  0  0  0  0  0
    3.2000   -2.6250    0.0000 C   0  0  0  0  0  0  0  0  0  0  0  0
    1.0500   -3.0375    0.0000 C   0  0  0  0  0  0  0  0  0  0  0  0
    5.3792    1.0750    0.0000 C   0  0  0  0  0  0  0  0  0  0  0  0
    1.0500   -1.3667    0.0000 C   0  0  0  0  0  0  0  0  0  0  0  0
    0.3375   -2.6250    0.0000 C   0  0  0  0  0  0  0  0  0  0  0  0
    4.6417    0.6750    0.0000 C   0  0  0  0  0  0  0  0  0  0  0  0
    5.3500   -0.5875    0.0000 C   0  0  0  0  0  0  0  0  0  0  0  0
    0.3375   -1.8000    0.0000 C   0  0  0  0  0  0  0  0  0  0  0  0
    5.3917    1.9125    0.0000 C   0  0  0  0  0  0  0  0  0  0  0  0
    2.4792   -0.5500    0.0000 C   0  0  0  0  0  0  0  0  0  0  0  0
    3.2000   -0.1500    0.0000 C   0  0  0  0  0  0  0  0  0  0  0  0
    2.4792   -3.0375    0.0000 C   0  0  0  0  0  0  0  0  0  0  0  0
    4.6167   -1.8042    0.0000 C   0  0  0  0  0  0  0  0  0  0  0  0
    5.3375   -1.4125    0.0000 C   0  0  0  0  0  0  0  0  0  0  0  0
    6.0917    0.6500    0.0000 C   0  0  0  0  0  0  0  0  0  0  0  0
    6.0750   -0.1875    0.0000 C   0  0  0  0  0  0  0  0  0  0  0  0
    4.6792    2.3375    0.0000 O   0  0  0  0  0  0  0  0  0  0  0  0
   -0.3833   -3.0375    0.0000 O   0  0  0  0  0  0  0  0  0  0  0  0
    3.8917   -2.2125    0.0000 C   0  0  0  0  0  0  0  0  0  0  0  0
    1.7542   -0.9625    0.0000 C   0  0  0  0  0  0  0  0  0  0  0  0
   -0.3833   -1.3875    0.0000 O   0  0  0  0  0  0  0  0  0  0  0  0
    3.9042    0.2750    0.0000 C   0  0  0  0  0  0  0  0  0  0  0  0
    6.1167    2.3125    0.0000 O   0  0  0  0  0  0  0  0  0  0  0  0
    1.0417   -3.8625    0.0000 C   0  0  0  0  0  0  0  0  0  0  0  0
    4.6542    1.4875    0.0000 C   0  0  0  0  0  0  0  0  0  0  0  0
    5.9292   -1.1750    0.0000 C   0  0  0  0  0  0  0  0  0  0  0  0
  2  1  1  0
  3  1  1  0
  4  2  1  0
  5  3  1  0
  6 19  1  0
  7  4  1  0
  8  1  2  0
  9  6  2  0
 10 13  1  0
 11  5  2  0
 12  9  1  0
 13  7  1  0
 14 21  1  0
 15 11  1  0
 10 16  1  0
 17  3  1  0
 18 17  1  0
 19  8  1  0
 20  2  1  0
 21 20  1  0
 22 23  1  0
 23 14  1  0
 24 16  2  0
 25 12  1  0
  2 26  1  1
  3 27  1  1
 28 15  1  0
  4 29  1  6
 30 16  1  0
 31  9  1  0
 10 32  1  1
 14 33  1  1
  6  5  1  0
  4 18  1  0
 15 12  2  0
 14  7  1  0
 10 22  1  0
M  END
>  <ID>  (1600) 


>  <MOLENAME>  (1600) 
DIHYDROCELASTROL

>  <therap>  (1600) 
nan

>  <ref>  (1600) 
J Org Chem 30: 1729 (1965)

>  <cas#>  (1600) 
nan

>  <source>  (1600) 
celastrol derivative

>  <status>  (1600) 
undetermined activity

>  <tradename>  (1600) 
nan

>  <SMILES>  (1600) 
Cc1c2CC=C3[C@@]4(C)CC[C@@]5(C)CC[C@@](C)(C(=O)O)CC5[C@]4(C)CC[C@@]3(C)c2cc(O)c1O

>  <standardized_failed>  (1600) 
False

$$$$

     RDKit          2D

 16 16  0  0  0  0  0  0  0  0999 V2000
    4.7292   -2.6875    0.0000 C   0  0  0  0  0  0  0  0  0  0  0  0
    5.4417   -2.2667    0.0000 C   0  0  0  0  0  0  0  0  0  0  0  0
    4.7292   -3.5167    0.0000 C   0  0  0  0  0  0  0  0  0  0  0  0
    5.4417   -3.9292    0.0000 O   0  0  0  0  0  0  0  0  0  0  0  0
    5.4417   -4.7542    0.0000 C   0  0  0  0  0  0  0  0  0  0  0  0
    5.4375   -1.4417    0.0000 O   0  0  0  0  0  0  0  0  0  0  0  0
    4.7250   -5.1625    0.0000 O   0  0  0  0  0  0  0  0  0  0  0  0
    6.1542   -2.6792    0.0000 O   0  0  0  0  0  0  0  0  0  0  0  0
    4.0125   -2.2750    0.0000 C   0  0  0  0  0  0  0  0  0  0  0  0
    4.0125   -3.9292    0.0000 C   0  0  0  0  0  0  0  0  0  0  0  0
    6.1542   -5.1667    0.0000 C   0  0  0  0  0  0  0  0  0  0  0  0
    6.8667   -4.7542    0.0000 C   0  0  0  0  0  0  0  0  0  0  0  0
    7.5792   -5.1667    0.0000 C   0  0  0  0  0  0  0  0  0  0  0  0
    3.3000   -2.6875    0.0000 C   0  0  0  0  0  0  0  0  0  0  0  0
    3.3000   -3.5167    0.0000 C   0  0  0  0  0  0  0  0  0  0  0  0
    8.2917   -4.7542    0.0000 C   0  0  0  0  0  0  0  0  0  0  0  0
  2  1  1  0
  3  1  2  0
  4  3  1  0
  5  4  1  0
  6  2  2  0
  7  5  2  0
  8  2  1  0
  9  1  1  0
 10  3  1  0
 11  5  1  0
 12 11  1  0
 13 12  1  0
 14  9  2  0
 15 14  1  0
 16 13  1  0
 10 15  2  0
M  END
>  <ID>  (1601) 


>  <MOLENAME>  (1601) 
VALERYL SALYCILATE

>  <therap>  (1601) 
COX-1 inhibitor

>  <ref>  (1601) 
Arch Biochem Biophys 317:19 (1995); OphthalmolVis Sci 39:1888 (1998)

>  <cas#>  (1601) 
64206-54-8

>  <source>  (1601) 
synthetic

>  <status>  (1601) 
experimental

>  <tradename>  (1601) 
nan

>  <SMILES>  (1601) 
CCCCC(=O)Oc1c(C(=O)O)cccc1

>  <standardized_failed>  (1601) 
False

$$$$

     RDKit          2D

 20 21  0  0  0  0  0  0  0  0999 V2000
    2.9167   -0.4167    0.0000 C   0  0  0  0  0  0  0  0  0  0  0  0
    2.9167    0.4083    0.0000 C   0  0  0  0  0  0  0  0  0  0  0  0
    2.2042   -0.8292    0.0000 C   0  0  0  0  0  0  0  0  0  0  0  0
    1.4917   -0.4167    0.0000 C   0  0  0  0  0  0  0  0  0  0  0  0
    2.2042    0.8208    0.0000 C   0  0  0  0  0  0  0  0  0  0  0  0
    3.6292   -0.8292    0.0000 C   0  0  0  0  0  0  0  0  0  0  0  0
    1.4917    0.4083    0.0000 C   0  0  0  0  0  0  0  0  0  0  0  0
    3.6292   -1.6542    0.0000 O   0  0  0  0  0  0  0  0  0  0  0  0
    4.3417   -0.4167    0.0000 C   0  0  0  0  0  0  0  0  0  0  0  0
    3.6292    0.8208    0.0000 O   0  0  0  0  0  0  0  0  0  0  0  0
    2.2042   -1.7667    0.0000 O   0  0  0  0  0  0  0  0  0  0  0  0
    5.7750   -0.4250    0.0000 C   0  0  0  0  0  0  0  0  0  0  0  0
    7.2042    0.3958    0.0000 C   0  0  0  0  0  0  0  0  0  0  0  0
    5.0625   -0.8292    0.0000 C   0  0  0  0  0  0  0  0  0  0  0  0
    0.7792    0.8208    0.0000 O   0  0  0  0  0  0  0  0  0  0  0  0
    7.2000   -0.4292    0.0000 C   0  0  0  0  0  0  0  0  0  0  0  0
    6.4917    0.8083    0.0000 C   0  0  0  0  0  0  0  0  0  0  0  0
    5.7750    0.4000    0.0000 C   0  0  0  0  0  0  0  0  0  0  0  0
    6.4875   -0.8417    0.0000 C   0  0  0  0  0  0  0  0  0  0  0  0
    7.9250    0.8000    0.0000 O   0  0  0  0  0  0  0  0  0  0  0  0
  2  1  2  0
  3  1  1  0
  4  3  2  0
  5  2  1  0
  6  1  1  0
  7  4  1  0
  8  6  2  0
  9  6  1  0
 10  2  1  0
 11  3  1  0
 12 14  1  0
 13 16  2  0
 14  9  1  0
 15  7  1  0
 16 19  1  0
 17 18  2  0
 18 12  1  0
 19 12  2  0
 20 13  1  0
  5  7  2  0
 17 13  1  0
M  END
>  <ID>  (1602) 


>  <MOLENAME>  (1602) 
PHLORETIN

>  <therap>  (1602) 
nan

>  <ref>  (1602) 
Ann Rev Biochem 20: 4955 (1951)

>  <cas#>  (1602) 
60-82-2

>  <source>  (1602) 
Prunus spp

>  <status>  (1602) 
undetermined activity

>  <tradename>  (1602) 
nan

>  <SMILES>  (1602) 
O=C(CCc1ccc(O)cc1)c1c(O)cc(O)cc1O

>  <standardized_failed>  (1602) 
False

$$$$

     RDKit          2D

 27 29  0  0  0  0  0  0  0  0999 V2000
    0.7375   -3.7625    0.0000 C   0  0  0  0  0  0  0  0  0  0  0  0
    0.7375   -2.9375    0.0000 C   0  0  0  0  0  0  0  0  0  0  0  0
    1.4417   -2.5167    0.0000 O   0  0  0  0  0  0  0  0  0  0  0  0
    0.0167   -4.1792    0.0000 C   0  0  0  0  0  0  0  0  0  0  0  0
    1.4542   -4.1750    0.0000 C   0  0  0  0  0  0  0  0  0  0  0  0
    0.0167   -2.5250    0.0000 C   0  0  0  0  0  0  0  0  0  0  0  0
   -0.6958   -3.7667    0.0000 C   0  0  0  0  0  0  0  0  0  0  0  0
   -0.6958   -2.9375    0.0000 C   0  0  0  0  0  0  0  0  0  0  0  0
    2.1625   -2.9292    0.0000 C   0  0  0  0  0  0  0  0  0  0  0  0
    2.1667   -3.7542    0.0000 C   0  0  0  0  0  0  0  0  0  0  0  0
    2.8667   -2.5125    0.0000 C   0  0  0  0  0  0  0  0  0  0  0  0
    1.4542   -5.0000    0.0000 O   0  0  0  0  0  0  0  0  0  0  0  0
    0.0250   -5.0042    0.0000 O   0  0  0  0  0  0  0  0  0  0  0  0
    3.5875   -2.9250    0.0000 C   0  0  0  0  0  0  0  0  0  0  0  0
    2.8667   -1.6917    0.0000 C   0  0  0  0  0  0  0  0  0  0  0  0
    0.0167   -1.7000    0.0000 O   0  0  0  0  0  0  0  0  0  0  0  0
   -1.4083   -4.1792    0.0000 O   0  0  0  0  0  0  0  0  0  0  0  0
   -1.4083   -2.5292    0.0000 O   0  0  0  0  0  0  0  0  0  0  0  0
    4.2917   -1.6792    0.0000 C   0  0  0  0  0  0  0  0  0  0  0  0
    4.3000   -2.5042    0.0000 C   0  0  0  0  0  0  0  0  0  0  0  0
    3.5750   -1.2750    0.0000 C   0  0  0  0  0  0  0  0  0  0  0  0
    5.0042   -1.2625    0.0000 O   0  0  0  0  0  0  0  0  0  0  0  0
    0.7417   -5.4167    0.0000 C   0  0  0  0  0  0  0  0  0  0  0  0
   -2.1208   -2.9417    0.0000 C   0  0  0  0  0  0  0  0  0  0  0  0
   -2.1208   -3.7667    0.0000 C   0  0  0  0  0  0  0  0  0  0  0  0
    0.7292   -1.2875    0.0000 C   0  0  0  0  0  0  0  0  0  0  0  0
    5.0000   -0.4375    0.0000 C   0  0  0  0  0  0  0  0  0  0  0  0
  2  1  2  0
  3  2  1  0
  4  1  1  0
  5  1  1  0
  6  2  1  0
  7  4  2  0
  8  7  1  0
  9 10  2  0
 10  5  1  0
 11  9  1  0
 12  5  2  0
 13  4  1  0
 14 11  2  0
 15 11  1  0
 16  6  1  0
 17  7  1  0
 18  8  1  0
 19 21  1  0
 20 14  1  0
 21 15  2  0
 22 19  1  0
 23 13  1  0
 24 18  1  0
 25 17  1  0
 26 16  1  0
 27 22  1  0
  9  3  1  0
  8  6  2  0
 19 20  2  0
M  END
>  <ID>  (1603) 


>  <MOLENAME>  (1603) 
TANGERITIN

>  <therap>  (1603) 
nan

>  <ref>  (1603) 
Chem Ind 1957: 47; Phytochemistry 14: 309 (1975)

>  <cas#>  (1603) 
481-53-8

>  <source>  (1603) 
Citrus spp, Fortunella japonica

>  <status>  (1603) 
undetermined activity

>  <tradename>  (1603) 
nan

>  <SMILES>  (1603) 
COc1ccc(-c2cc(=O)c3c(o2)c(OC)c(OC)c(OC)c3OC)cc1

>  <standardized_failed>  (1603) 
False

$$$$

     RDKit          2D

 17 19  0  0  0  0  0  0  0  0999 V2000
    3.0042   -3.3417    0.0000 C   0  0  0  0  0  0  0  0  0  0  0  0
    3.7167   -3.7542    0.0000 C   0  0  0  0  0  0  0  0  0  0  0  0
    2.3000   -3.7542    0.0000 C   0  0  0  0  0  0  0  0  0  0  0  0
    3.0125   -2.5167    0.0000 C   0  0  0  0  0  0  0  0  0  0  0  0
    4.4375   -3.3500    0.0000 C   0  0  0  0  0  0  0  0  0  0  0  0
    1.5917   -3.3417    0.0000 C   0  0  0  0  0  0  0  0  0  0  0  0
    2.3000   -2.1042    0.0000 O   0  0  0  0  0  0  0  0  0  0  0  0
    4.4375   -2.5250    0.0000 C   0  0  0  0  0  0  0  0  0  0  0  0
    3.7250   -2.1042    0.0000 C   0  0  0  0  0  0  0  0  0  0  0  0
    1.5917   -2.5167    0.0000 C   0  0  0  0  0  0  0  0  0  0  0  0
    5.2250   -2.2667    0.0000 O   0  0  0  0  0  0  0  0  0  0  0  0
    5.2167   -3.6042    0.0000 C   0  0  0  0  0  0  0  0  0  0  0  0
    5.7042   -2.9375    0.0000 C   0  0  0  0  0  0  0  0  0  0  0  0
    2.3042   -4.5792    0.0000 O   0  0  0  0  0  0  0  0  0  0  0  0
    3.7125   -4.5792    0.0000 O   0  0  0  0  0  0  0  0  0  0  0  0
    0.8750   -2.1042    0.0000 C   0  0  0  0  0  0  0  0  0  0  0  0
    2.9917   -4.9917    0.0000 C   0  0  0  0  0  0  0  0  0  0  0  0
  2  1  2  0
  3  1  1  0
  4  1  1  0
  5  2  1  0
  6  3  1  0
  7  4  1  0
  8  9  1  0
  9  4  2  0
 10  7  1  0
 11  8  1  0
 12  5  1  0
 13 12  2  0
 14  3  2  0
 15  2  1  0
 16 10  1  0
 17 15  1  0
  5  8  2  0
 10  6  2  0
 13 11  1  0
M  END
>  <ID>  (1604) 


>  <MOLENAME>  (1604) 
VISNAGIN

>  <therap>  (1604) 
nan

>  <ref>  (1604) 
Tetrahedron 3: 230 (1958)

>  <cas#>  (1604) 
82-57-5

>  <source>  (1604) 
Ammi visnaga

>  <status>  (1604) 
undetermined activity

>  <tradename>  (1604) 
nan

>  <SMILES>  (1604) 
COc1c2c(=O)cc(C)oc2cc2c1cco2

>  <standardized_failed>  (1604) 
False

$$$$

     RDKit          2D

 16 17  0  0  0  0  0  0  0  0999 V2000
    6.3250   -4.5167    0.0000 N   0  0  0  0  0  0  0  0  0  0  0  0
    5.5375   -4.2667    0.0000 C   0  0  0  0  0  0  0  0  0  0  0  0
    6.8042   -3.8500    0.0000 C   0  0  0  0  0  0  0  0  0  0  0  0
    5.5292   -3.4417    0.0000 C   0  0  0  0  0  0  0  0  0  0  0  0
    6.3167   -3.1792    0.0000 C   0  0  0  0  0  0  0  0  0  0  0  0
    4.8167   -4.6875    0.0000 C   0  0  0  0  0  0  0  0  0  0  0  0
    4.8167   -3.0292    0.0000 C   0  0  0  0  0  0  0  0  0  0  0  0
    7.6250   -3.7625    0.0000 C   0  0  0  0  0  0  0  0  0  0  0  0
    7.9625   -3.0042    0.0000 N   0  0  0  0  0  0  0  0  0  0  0  0
    4.1042   -4.2750    0.0000 C   0  0  0  0  0  0  0  0  0  0  0  0
    4.1042   -3.4500    0.0000 C   0  0  0  0  0  0  0  0  0  0  0  0
    7.4667   -2.3375    0.0000 C   0  0  0  0  0  0  0  0  0  0  0  0
    6.6417   -2.4250    0.0000 C   0  0  0  0  0  0  0  0  0  0  0  0
    9.2292   -3.9292    0.0000 Cl  0  0  0  0  0  0  0  0  0  0  0  0
    3.3875   -4.6875    0.0000 O   0  0  0  0  0  0  0  0  0  0  0  0
    8.1167   -4.4250    0.0000 C   0  0  0  0  0  0  0  0  0  0  0  0
  2  1  1  0
  3  1  1  0
  4  2  2  0
  5  3  2  0
  6  2  1  0
  7  4  1  0
  8  3  1  0
  9  8  2  0
 10  6  2  0
 11 10  1  0
 12  9  1  0
 13  5  1  0
 15 10  1  0
 16  8  1  0
  5  4  1  0
 12 13  2  0
  7 11  2  0
M  END
>  <ID>  (1605) 


>  <MOLENAME>  (1605) 
HARMOL HYDROCHLORIDE

>  <therap>  (1605) 
MAO inhibitor

>  <ref>  (1605) 
Phytochemistry 19:1573 (1980)

>  <cas#>  (1605) 
40580-83-4

>  <source>  (1605) 
common plant alkaloid

>  <status>  (1605) 
experimental

>  <tradename>  (1605) 
nan

>  <SMILES>  (1605) 
Cc1nccc2c1[nH]c1c2ccc(O)c1

>  <standardized_failed>  (1605) 
False

$$$$

     RDKit          2D

 30 33  0  0  0  0  0  0  0  0999 V2000
    1.8542   -0.2667    0.0000 C   0  0  0  0  0  0  0  0  0  0  0  0
    3.2792   -0.2542    0.0000 C   0  0  0  0  0  0  0  0  0  0  0  0
    1.1375    0.1375    0.0000 C   0  0  0  0  0  0  0  0  0  0  0  0
    3.9917    0.1625    0.0000 C   0  0  0  0  0  0  0  0  0  0  0  0
    0.4292   -0.2792    0.0000 C   0  0  0  0  0  0  0  0  0  0  0  0
    2.5667    0.1458    0.0000 C   0  0  0  0  0  0  0  0  0  0  0  0
    1.8542   -1.1000    0.0000 C   0  0  0  0  0  0  0  0  0  0  0  0
    4.7167   -0.2542    0.0000 O   0  0  0  0  0  0  0  0  0  0  0  0
    0.4292   -1.1042    0.0000 C   0  0  0  0  0  0  0  0  0  0  0  0
    3.9917    0.9875    0.0000 C   0  0  0  0  0  0  0  0  0  0  0  0
    4.7167    1.4000    0.0000 C   0  0  0  0  0  0  0  0  0  0  0  0
    1.1417   -1.5167    0.0000 O   0  0  0  0  0  0  0  0  0  0  0  0
    3.2917   -1.0917    0.0000 C   0  0  0  0  0  0  0  0  0  0  0  0
    5.4292    0.9875    0.0000 C   0  0  0  0  0  0  0  0  0  0  0  0
    5.4292    0.1625    0.0000 C   0  0  0  0  0  0  0  0  0  0  0  0
    2.5750   -1.5042    0.0000 C   0  0  0  0  0  0  0  0  0  0  0  0
   -0.2875    0.1333    0.0000 C   0  0  0  0  0  0  0  0  0  0  0  0
   -0.2875   -1.5167    0.0000 C   0  0  0  0  0  0  0  0  0  0  0  0
   -1.0000   -0.2792    0.0000 C   0  0  0  0  0  0  0  0  0  0  0  0
   -1.0000   -1.1042    0.0000 C   0  0  0  0  0  0  0  0  0  0  0  0
    1.1292    0.9625    0.0000 O   0  0  0  0  0  0  0  0  0  0  0  0
    2.5542    0.9708    0.0000 O   0  0  0  0  0  0  0  0  0  0  0  0
    3.2792    1.4000    0.0000 O   0  0  0  0  0  0  0  0  0  0  0  0
    4.7167    2.2333    0.0000 O   0  0  0  0  0  0  0  0  0  0  0  0
    4.0125   -1.5000    0.0000 O   0  0  0  0  0  0  0  0  0  0  0  0
    6.1417    1.4000    0.0000 O   0  0  0  0  0  0  0  0  0  0  0  0
   -1.7125    0.1333    0.0000 O   0  0  0  0  0  0  0  0  0  0  0  0
   -1.7208   -1.5167    0.0000 O   0  0  0  0  0  0  0  0  0  0  0  0
    6.1417   -0.2542    0.0000 C   0  0  0  0  0  0  0  0  0  0  0  0
    6.7750    0.2833    0.0000 O   0  0  0  0  0  0  0  0  0  0  0  0
  2  6  1  0
  3  1  1  0
  4  2  1  0
  5  3  1  0
  6  1  2  0
  7  1  1  0
  8  4  1  0
  9 12  1  0
 10  4  1  0
 11 10  1  0
 12  7  1  0
 13 16  1  0
 14 11  1  0
 15  8  1  0
 16  7  2  0
 17  5  2  0
 18  9  2  0
 19 17  1  0
 20 18  1  0
 21  3  2  0
 22  6  1  0
 10 23  1  6
 11 24  1  6
 25 13  1  0
 14 26  1  1
 27 19  1  0
 28 20  1  0
 15 29  1  1
 30 29  1  0
 13  2  2  0
  9  5  1  0
 20 19  2  0
 14 15  1  0
M  END
>  <ID>  (1606) 


>  <MOLENAME>  (1606) 
MANGIFERIN

>  <therap>  (1606) 
MAO inhibitor, immunostimulant

>  <ref>  (1606) 
J Chem Soc (C) 1966:1685; Phytochemistry 6:741, 1597 (1967); Tetrahedron 23:1363 (1967); Pharm Res 3:307 (1986); Naturwissenschaften 59:651 (1972)

>  <cas#>  (1606) 
4773-96-0

>  <source>  (1606) 
Mangifera indica, Iris & Salacia spp, Aphloia, Athyrium, Anemarrhena, Belamcanda chinensis, Hedysarum ussuriense

>  <status>  (1606) 
experimental

>  <tradename>  (1606) 
nan

>  <SMILES>  (1606) 
O=c1c2cc(O)c(O)cc2oc2cc(O)c(C3O[C@H](CO)[C@H](O)[C@@H](O)[C@H]3O)c(O)c12

>  <standardized_failed>  (1606) 
False

$$$$

     RDKit          2D

 20 21  0  0  0  0  0  0  0  0999 V2000
    3.4542  -16.6542    0.0000 C   0  0  0  0  0  0  0  0  0  0  0  0
    3.4542  -15.8292    0.0000 C   0  0  0  0  0  0  0  0  0  0  0  0
    4.1667  -17.0667    0.0000 C   0  0  0  0  0  0  0  0  0  0  0  0
    4.1667  -17.8875    0.0000 C   0  0  0  0  0  0  0  0  0  0  0  0
    2.7417  -15.4167    0.0000 C   0  0  0  0  0  0  0  0  0  0  0  0
    2.7417  -17.0667    0.0000 C   0  0  0  0  0  0  0  0  0  0  0  0
    4.8792  -18.2917    0.0000 C   0  0  0  0  0  0  0  0  0  0  0  0
    4.8792  -16.6500    0.0000 O   0  0  0  0  0  0  0  0  0  0  0  0
    2.0292  -15.8292    0.0000 C   0  0  0  0  0  0  0  0  0  0  0  0
    4.8792  -19.1167    0.0000 C   0  0  0  0  0  0  0  0  0  0  0  0
    4.1667  -15.4125    0.0000 O   0  0  0  0  0  0  0  0  0  0  0  0
    2.0292  -16.6542    0.0000 C   0  0  0  0  0  0  0  0  0  0  0  0
    4.8792  -20.7542    0.0000 C   0  0  0  0  0  0  0  0  0  0  0  0
    5.5875  -19.5167    0.0000 C   0  0  0  0  0  0  0  0  0  0  0  0
    4.1667  -19.5250    0.0000 C   0  0  0  0  0  0  0  0  0  0  0  0
    4.1667  -20.3417    0.0000 C   0  0  0  0  0  0  0  0  0  0  0  0
    5.5917  -20.3417    0.0000 C   0  0  0  0  0  0  0  0  0  0  0  0
    1.3167  -15.4167    0.0000 O   0  0  0  0  0  0  0  0  0  0  0  0
    4.8792  -21.5792    0.0000 O   0  0  0  0  0  0  0  0  0  0  0  0
    4.1667  -21.9917    0.0000 C   0  0  0  0  0  0  0  0  0  0  0  0
  2  1  2  0
  3  1  1  0
  4  3  1  0
  5  2  1  0
  6  1  1  0
  7  4  2  0
  8  3  2  0
  9 12  1  0
 10  7  1  0
 11  2  1  0
 12  6  2  0
 13 16  2  0
 14 10  1  0
 15 10  2  0
 16 15  1  0
 17 14  2  0
 18  9  1  0
 19 13  1  0
 20 19  1  0
  9  5  2  0
 13 17  1  0
M  END
>  <ID>  (1607) 


>  <MOLENAME>  (1607) 
2'.4'-DIHYDROXY-4-METHOXYCHALCONE

>  <therap>  (1607) 
nan

>  <ref>  (1607) 
nan

>  <cas#>  (1607) 
81674-91-1

>  <source>  (1607) 
Bauhinia manca

>  <status>  (1607) 
undetermined activity

>  <tradename>  (1607) 
nan

>  <SMILES>  (1607) 
COc1ccc(/C=C/C(=O)c2c(O)cc(O)cc2)cc1

>  <standardized_failed>  (1607) 
False

$$$$

     RDKit          2D

 28 31  0  0  0  0  0  0  0  0999 V2000
    2.6000   -2.4667    0.0000 C   0  0  0  0  0  0  0  0  0  0  0  0
    4.7500   -1.2417    0.0000 C   0  0  0  0  0  0  0  0  0  0  0  0
    4.0167   -2.4750    0.0000 C   0  0  0  0  0  0  0  0  0  0  0  0
    3.3125   -2.0542    0.0000 C   0  0  0  0  0  0  0  0  0  0  0  0
    4.7375   -2.0667    0.0000 C   0  0  0  0  0  0  0  0  0  0  0  0
    2.5917   -3.2917    0.0000 C   0  0  0  0  0  0  0  0  0  0  0  0
    5.5292   -1.0042    0.0000 C   0  0  0  0  0  0  0  0  0  0  0  0
    4.0250   -3.2917    0.0000 C   0  0  0  0  0  0  0  0  0  0  0  0
    3.3042   -3.7042    0.0000 C   0  0  0  0  0  0  0  0  0  0  0  0
    4.0417   -0.8250    0.0000 C   0  0  0  0  0  0  0  0  0  0  0  0
    3.3167   -1.2292    0.0000 C   0  0  0  0  0  0  0  0  0  0  0  0
    5.5125   -2.3375    0.0000 C   0  0  0  0  0  0  0  0  0  0  0  0
    1.8875   -2.0500    0.0000 C   0  0  0  0  0  0  0  0  0  0  0  0
    6.0042   -1.6792    0.0000 C   0  0  0  0  0  0  0  0  0  0  0  0
    8.0042   -0.9792    0.0000 C   0  0  0  0  0  0  0  0  0  0  0  0
    1.8875   -3.7000    0.0000 C   0  0  0  0  0  0  0  0  0  0  0  0
    8.4125   -0.2667    0.0000 O   0  0  0  0  0  0  0  0  0  0  0  0
    5.9417   -0.2917    0.0000 C   0  0  0  0  0  0  0  0  0  0  0  0
    6.7625   -0.2792    0.0000 C   0  0  0  0  0  0  0  0  0  0  0  0
    7.1792   -0.9917    0.0000 C   0  0  0  0  0  0  0  0  0  0  0  0
    2.5917   -1.6417    0.0000 C   0  0  0  0  0  0  0  0  0  0  0  0
    4.7417   -0.4167    0.0000 C   0  0  0  0  0  0  0  0  0  0  0  0
    3.3042   -4.5292    0.0000 O   0  0  0  0  0  0  0  0  0  0  0  0
    1.1792   -2.4667    0.0000 C   0  0  0  0  0  0  0  0  0  0  0  0
    1.1792   -3.2917    0.0000 C   0  0  0  0  0  0  0  0  0  0  0  0
    8.4292   -1.6917    0.0000 O   0  0  0  0  0  0  0  0  0  0  0  0
    0.4625   -3.7042    0.0000 O   0  0  0  0  0  0  0  0  0  0  0  0
    5.5167    0.4208    0.0000 C   0  0  0  0  0  0  0  0  0  0  0  0
  2 10  1  0
  3  4  1  0
  4  1  1  0
  5  3  1  0
  6  1  1  0
  7  2  1  0
  8  9  1  0
  9  6  1  0
 10 11  1  0
 11  4  1  0
 12  5  1  0
 13  1  1  0
 14 12  1  0
 15 20  1  0
  6 16  1  6
 17 15  2  0
  7 18  1  1
 19 18  1  0
 20 19  1  0
  1 21  1  1
  2 22  1  1
  9 23  1  6
 24 13  1  0
 25 24  1  0
 26 15  1  0
 25 27  1  6
 28 18  1  0
 25 16  1  0
  3  8  1  0
  5  2  1  0
  7 14  1  0
M  END
>  <ID>  (1608) 


>  <MOLENAME>  (1608) 
alpha-HYDROXYDEOXYCHOLIC ACID

>  <therap>  (1608) 
nan

>  <ref>  (1608) 
J Chem Soc 1990: 1

>  <cas#>  (1608) 
83-49-8

>  <source>  (1608) 
pig bile

>  <status>  (1608) 
undetermined activity

>  <tradename>  (1608) 
nan

>  <SMILES>  (1608) 
CC(CCC(=O)O)[C@H]1CCC2C3C[C@H](O)[C@@H]4C[C@H](O)CC[C@]4(C)C3CC[C@@]21C

>  <standardized_failed>  (1608) 
False

$$$$

     RDKit          2D

 14 14  0  0  0  0  0  0  0  0999 V2000
    6.0917   -3.1542    0.0000 C   0  0  0  0  0  0  0  0  0  0  0  0
    5.6792   -3.8792    0.0000 C   0  0  0  0  0  0  0  0  0  0  0  0
    6.5042   -3.8792    0.0000 C   0  0  0  0  0  0  0  0  0  0  0  0
    4.9667   -4.2917    0.0000 C   0  0  0  0  0  0  0  0  0  0  0  0
    7.2167   -4.2917    0.0000 C   0  0  0  0  0  0  0  0  0  0  0  0
    4.2542   -3.8792    0.0000 C   0  0  0  0  0  0  0  0  0  0  0  0
    7.9292   -3.8792    0.0000 O   0  0  0  0  0  0  0  0  0  0  0  0
    5.5042   -2.5667    0.0000 C   0  0  0  0  0  0  0  0  0  0  0  0
    6.6792   -2.5667    0.0000 C   0  0  0  0  0  0  0  0  0  0  0  0
    7.2167   -5.1167    0.0000 O   0  0  0  0  0  0  0  0  0  0  0  0
    3.5417   -4.2917    0.0000 C   0  0  0  0  0  0  0  0  0  0  0  0
    4.2542   -3.0542    0.0000 C   0  0  0  0  0  0  0  0  0  0  0  0
    6.5042   -5.5292    0.0000 C   0  0  0  0  0  0  0  0  0  0  0  0
    6.5042   -6.3542    0.0000 C   0  0  0  0  0  0  0  0  0  0  0  0
  2  1  1  0
  3  1  1  0
  4  2  1  0
  5  3  1  0
  6  4  2  0
  7  5  2  0
  8  1  1  0
  9  1  1  0
 10  5  1  0
 11  6  1  0
 12  6  1  0
 13 10  1  0
 14 13  1  0
  2  3  1  0
M  END
>  <ID>  (1609) 


>  <MOLENAME>  (1609) 
CHRYSANTHEMIC ACID. ETHYL ESTER

>  <therap>  (1609) 
insecticide

>  <ref>  (1609) 
J Chem Soc 1945: 283

>  <cas#>  (1609) 
nan

>  <source>  (1609) 
pyrethrum flowers

>  <status>  (1609) 
experimental

>  <tradename>  (1609) 
nan

>  <SMILES>  (1609) 
CCOC(=O)C1C(C=C(C)C)C1(C)C

>  <standardized_failed>  (1609) 
False

$$$$

     RDKit          2D

 12 12  0  0  0  0  0  0  0  0999 V2000
    4.4417   -1.8000    0.0000 C   0  0  0  0  0  0  0  0  0  0  0  0
    3.7375   -2.2167    0.0000 C   0  0  0  0  0  0  0  0  0  0  0  0
    4.4417   -3.4500    0.0000 C   0  0  0  0  0  0  0  0  0  0  0  0
    4.4417   -0.9750    0.0000 C   0  0  0  0  0  0  0  0  0  0  0  0
    3.7375   -3.0417    0.0000 C   0  0  0  0  0  0  0  0  0  0  0  0
    5.1542   -3.0417    0.0000 C   0  0  0  0  0  0  0  0  0  0  0  0
    5.1542   -2.2167    0.0000 C   0  0  0  0  0  0  0  0  0  0  0  0
    3.7292   -0.5625    0.0000 O   0  0  0  0  0  0  0  0  0  0  0  0
    4.4417   -4.2750    0.0000 O   0  0  0  0  0  0  0  0  0  0  0  0
    5.1625   -0.5625    0.0000 O   0  0  0  0  0  0  0  0  0  0  0  0
    3.1500   -3.6250    0.0000 O   0  0  0  0  0  0  0  0  0  0  0  0
    5.8667   -3.4542    0.0000 O   0  0  0  0  0  0  0  0  0  0  0  0
  2  1  2  0
  3  6  1  0
  4  1  1  0
  5  2  1  0
  6  7  1  0
  7  1  1  0
  8  4  2  0
  3  9  1  6
 10  4  1  0
  5 11  1  6
  6 12  1  1
  5  3  1  0
M  END
>  <ID>  (1610) 


>  <MOLENAME>  (1610) 
SHIKIMIC ACID

>  <therap>  (1610) 
nan

>  <ref>  (1610) 
Helv Chim Acta 20: 705 (1937)

>  <cas#>  (1610) 
138-59-0

>  <source>  (1610) 
common constituent in plants

>  <status>  (1610) 
undetermined activity

>  <tradename>  (1610) 
nan

>  <SMILES>  (1610) 
O=C(O)C1=C[C@@H](O)[C@@H](O)[C@H](O)C1

>  <standardized_failed>  (1610) 
False

$$$$

     RDKit          2D

 23 25  0  0  0  0  0  0  0  0999 V2000
    2.8500   -1.8417    0.0000 C   0  0  0  0  0  0  0  0  0  0  0  0
    4.2667   -1.8375    0.0000 C   0  0  0  0  0  0  0  0  0  0  0  0
    5.5417   -2.2417    0.0000 C   0  0  0  0  0  0  0  0  0  0  0  0
    5.0542   -1.5750    0.0000 C   0  0  0  0  0  0  0  0  0  0  0  0
    1.4292   -1.8417    0.0000 C   0  0  0  0  0  0  0  0  0  0  0  0
    2.1292   -1.4250    0.0000 C   0  0  0  0  0  0  0  0  0  0  0  0
    1.4292   -2.6667    0.0000 C   0  0  0  0  0  0  0  0  0  0  0  0
    2.8500   -2.6625    0.0000 C   0  0  0  0  0  0  0  0  0  0  0  0
    3.5542   -1.4292    0.0000 C   0  0  0  0  0  0  0  0  0  0  0  0
    5.0625   -2.9125    0.0000 O   0  0  0  0  0  0  0  0  0  0  0  0
    2.1292   -3.0750    0.0000 C   0  0  0  0  0  0  0  0  0  0  0  0
    4.2750   -2.6625    0.0000 C   0  0  0  0  0  0  0  0  0  0  0  0
    3.5625   -3.0750    0.0000 C   0  0  0  0  0  0  0  0  0  0  0  0
    6.3667   -2.2375    0.0000 C   0  0  0  0  0  0  0  0  0  0  0  0
    2.1292   -0.6000    0.0000 O   0  0  0  0  0  0  0  0  0  0  0  0
    2.1417   -3.9000    0.0000 O   0  0  0  0  0  0  0  0  0  0  0  0
    5.4625   -0.8542    0.0000 O   0  0  0  0  0  0  0  0  0  0  0  0
    0.7125   -1.4292    0.0000 O   0  0  0  0  0  0  0  0  0  0  0  0
    0.7125   -3.0750    0.0000 O   0  0  0  0  0  0  0  0  0  0  0  0
    6.7792   -1.5167    0.0000 O   0  0  0  0  0  0  0  0  0  0  0  0
    3.5542   -0.6042    0.0000 O   0  0  0  0  0  0  0  0  0  0  0  0
    6.7875   -2.9500    0.0000 C   0  0  0  0  0  0  0  0  0  0  0  0
    0.0000   -2.6542    0.0000 C   0  0  0  0  0  0  0  0  0  0  0  0
  2  9  2  0
  3  4  2  0
  4  2  1  0
  5  6  1  0
  6  1  1  0
  7 11  1  0
  8  1  2  0
  9  1  1  0
 10 12  1  0
 11  8  1  0
 12  2  1  0
 13  8  1  0
 14  3  1  0
 15  6  2  0
 16 11  2  0
 17  4  1  0
 18  5  1  0
 19  7  1  0
 20 14  2  0
 21  9  1  0
 22 14  1  0
 23 19  1  0
 12 13  2  0
  7  5  2  0
  3 10  1  0
M  END
>  <ID>  (1611) 


>  <MOLENAME>  (1611) 
RHODOCLADONIC ACID

>  <therap>  (1611) 
nan

>  <ref>  (1611) 
Can J Chem 47: 2733 (1969); 61: 2055 (1983); Phytochemistry 12: 937 (1973)

>  <cas#>  (1611) 
26984-15-6

>  <source>  (1611) 
Cladonia spp

>  <status>  (1611) 
undetermined activity

>  <tradename>  (1611) 
nan

>  <SMILES>  (1611) 
COC1=C(O)C(=O)c2c(cc3oc(C(C)=O)c(O)c3c2O)C1=O

>  <standardized_failed>  (1611) 
False

$$$$

     RDKit          2D

 23 25  0  0  0  0  0  0  0  0999 V2000
    3.5125   -3.7500    0.0000 N   0  0  0  0  0  0  0  0  0  0  0  0
    8.5625   -2.7792    0.0000 Cl  0  0  0  0  0  0  0  0  0  0  0  0
    4.9417   -3.7417    0.0000 C   0  0  0  0  0  0  0  0  0  0  0  0
    5.6542   -2.5125    0.0000 N   0  0  0  0  0  0  0  0  0  0  0  0
    4.2292   -2.5125    0.0000 C   0  0  0  0  0  0  0  0  0  0  0  0
    4.2250   -4.1625    0.0000 C   0  0  0  0  0  0  0  0  0  0  0  0
    3.5167   -2.9250    0.0000 C   0  0  0  0  0  0  0  0  0  0  0  0
    2.8042   -4.1542    0.0000 C   0  0  0  0  0  0  0  0  0  0  0  0
    5.6500   -3.3292    0.0000 C   0  0  0  0  0  0  0  0  0  0  0  0
    4.9417   -2.0917    0.0000 C   0  0  0  0  0  0  0  0  0  0  0  0
    4.9417   -2.9292    0.0000 C   0  0  0  0  0  0  0  0  0  0  0  0
    9.1042   -2.2292    0.0000 O   0  0  0  0  0  0  0  0  0  0  0  0
    7.9667   -2.1292    0.0000 O   0  0  0  0  0  0  0  0  0  0  0  0
    8.0167   -3.3417    0.0000 O   0  0  0  0  0  0  0  0  0  0  0  0
    2.8042   -4.9792    0.0000 O   0  0  0  0  0  0  0  0  0  0  0  0
    9.0792   -3.2542    0.0000 O   0  0  0  0  0  0  0  0  0  0  0  0
    6.3667   -2.1000    0.0000 C   0  0  0  0  0  0  0  0  0  0  0  0
    2.0917   -3.7500    0.0000 C   0  0  0  0  0  0  0  0  0  0  0  0
    2.8042   -2.5042    0.0000 C   0  0  0  0  0  0  0  0  0  0  0  0
    2.0917   -2.9250    0.0000 C   0  0  0  0  0  0  0  0  0  0  0  0
    6.3625   -3.7417    0.0000 C   0  0  0  0  0  0  0  0  0  0  0  0
    7.0792   -2.5167    0.0000 C   0  0  0  0  0  0  0  0  0  0  0  0
    7.0750   -3.3375    0.0000 C   0  0  0  0  0  0  0  0  0  0  0  0
  3  6  1  0
  4 10  1  0
  5  7  1  0
  6  1  1  0
  7  1  1  0
  8  1  1  0
  9  3  1  0
 10  5  1  0
 11  5  1  0
 12  2  1  0
 13  2  1  0
 14  2  1  0
 15  8  2  0
 16  2  1  0
 17  4  1  0
 18  8  1  0
 19  7  1  0
 20 18  1  0
  9 21  1  1
 22 17  1  0
 23 21  1  0
 20 19  1  0
 11  3  1  0
  4  9  1  0
 22 23  1  0
M  CHG  4   2   3  12  -1  13  -1  14  -1
M  END
>  <ID>  (1612) 


>  <MOLENAME>  (1612) 
LUPANINE PERCHLORATE

>  <therap>  (1612) 
nan

>  <ref>  (1612) 
nan

>  <cas#>  (1612) 
550-90-3 (base)

>  <source>  (1612) 
Lupinus and Cystisus spp

>  <status>  (1612) 
undetermined activity

>  <tradename>  (1612) 
nan

>  <SMILES>  (1612) 
O=C1CCCC2C3CC(CN12)[C@@H]1CCCCN1C3.[O-][Cl+3]([O-])([O-])O

>  <standardized_failed>  (1612) 
False

$$$$

     RDKit          2D

 21 20  0  0  0  0  0  0  0  0999 V2000
    6.3792    0.3333    0.0000 C   0  0  0  0  0  0  0  0  0  0  0  0
    5.6667   -1.7292    0.0000 C   0  0  0  0  0  0  0  0  0  0  0  0
    6.3792   -0.4917    0.0000 C   0  0  0  0  0  0  0  0  0  0  0  0
    5.6667   -0.9042    0.0000 C   0  0  0  0  0  0  0  0  0  0  0  0
    4.9542   -2.1417    0.0000 O   0  0  0  0  0  0  0  0  0  0  0  0
    5.6667    0.7458    0.0000 O   0  0  0  0  0  0  0  0  0  0  0  0
    7.0917    0.7458    0.0000 O   0  0  0  0  0  0  0  0  0  0  0  0
    6.3792   -2.1417    0.0000 O   0  0  0  0  0  0  0  0  0  0  0  0
    4.9542   -0.4917    0.0000 C   0  0  0  0  0  0  0  0  0  0  0  0
    7.0917   -0.9042    0.0000 C   0  0  0  0  0  0  0  0  0  0  0  0
    4.2375   -0.9042    0.0000 C   0  0  0  0  0  0  0  0  0  0  0  0
   -2.1708   -0.4375    0.0000 C   0  0  0  0  0  0  0  0  0  0  0  0
   -1.4625   -0.8542    0.0000 C   0  0  0  0  0  0  0  0  0  0  0  0
    2.8125   -0.8917    0.0000 C   0  0  0  0  0  0  0  0  0  0  0  0
    2.1042   -0.4750    0.0000 C   0  0  0  0  0  0  0  0  0  0  0  0
    1.3875   -0.8792    0.0000 C   0  0  0  0  0  0  0  0  0  0  0  0
    0.6792   -0.4625    0.0000 C   0  0  0  0  0  0  0  0  0  0  0  0
   -0.0375   -0.8667    0.0000 C   0  0  0  0  0  0  0  0  0  0  0  0
   -0.7458   -0.4500    0.0000 C   0  0  0  0  0  0  0  0  0  0  0  0
    3.5292   -0.4875    0.0000 C   0  0  0  0  0  0  0  0  0  0  0  0
   -2.8875   -0.8417    0.0000 C   0  0  0  0  0  0  0  0  0  0  0  0
  2  4  1  0
  3  1  1  0
  4  3  1  0
  5  2  2  0
  6  1  2  0
  7  1  1  0
  8  2  1  0
  4  9  1  1
  3 10  1  6
 11  9  1  0
 12 13  1  0
 13 19  1  0
 14 20  1  0
 15 14  1  0
 16 15  1  0
 17 16  1  0
 18 17  1  0
 19 18  1  0
 20 11  1  0
 21 12  1  0
M  END
>  <ID>  (1613) 


>  <MOLENAME>  (1613) 
ROCCELLIC ACID

>  <therap>  (1613) 
nan

>  <ref>  (1613) 
J Chem Soc 1971: 1318

>  <cas#>  (1613) 
22139-54-4

>  <source>  (1613) 
Lecanora and Roccella spp

>  <status>  (1613) 
undetermined activity

>  <tradename>  (1613) 
nan

>  <SMILES>  (1613) 
CCCCCCCCCCCC[C@H](C(=O)O)[C@@H](C)C(=O)O

>  <standardized_failed>  (1613) 
False

$$$$

     RDKit          2D

 29 32  0  0  0  0  0  0  0  0999 V2000
    5.6167   -2.8625    0.0000 C   0  0  0  0  0  0  0  0  0  0  0  0
    3.7042   -2.8375    0.0000 C   0  0  0  0  0  0  0  0  0  0  0  0
    3.8667   -2.0000    0.0000 C   0  0  0  0  0  0  0  0  0  0  0  0
    4.6917   -1.6250    0.0000 C   0  0  0  0  0  0  0  0  0  0  0  0
    6.4167   -3.1667    0.0000 C   0  0  0  0  0  0  0  0  0  0  0  0
    2.8667   -2.9500    0.0000 C   0  0  0  0  0  0  0  0  0  0  0  0
    5.4792   -2.0250    0.0000 C   0  0  0  0  0  0  0  0  0  0  0  0
    7.0792   -2.6292    0.0000 C   0  0  0  0  0  0  0  0  0  0  0  0
    8.0417   -4.2542    0.0000 C   0  0  0  0  0  0  0  0  0  0  0  0
    4.2292   -3.3792    0.0000 C   0  0  0  0  0  0  0  0  0  0  0  0
    5.5792   -4.8667    0.0000 C   0  0  0  0  0  0  0  0  0  0  0  0
    5.1042   -3.3875    0.0000 C   0  0  0  0  0  0  0  0  0  0  0  0
    3.1167   -1.5792    0.0000 C   0  0  0  0  0  0  0  0  0  0  0  0
    2.5042   -2.1625    0.0000 C   0  0  0  0  0  0  0  0  0  0  0  0
    6.1667   -4.1167    0.0000 O   0  0  0  0  0  0  0  0  0  0  0  0
    6.9417   -1.7875    0.0000 C   0  0  0  0  0  0  0  0  0  0  0  0
    6.1417   -1.4875    0.0000 C   0  0  0  0  0  0  0  0  0  0  0  0
    6.6375   -5.3667    0.0000 C   0  0  0  0  0  0  0  0  0  0  0  0
    3.4542   -3.5917    0.0000 O   0  0  0  0  0  0  0  0  0  0  0  0
    7.4542   -5.4292    0.0000 O   0  0  0  0  0  0  0  0  0  0  0  0
    4.9250   -0.7792    0.0000 O   0  0  0  0  0  0  0  0  0  0  0  0
    8.7292   -5.0292    0.0000 O   0  0  0  0  0  0  0  0  0  0  0  0
    4.0167   -4.1792    0.0000 O   0  0  0  0  0  0  0  0  0  0  0  0
    1.6417   -2.0042    0.0000 O   0  0  0  0  0  0  0  0  0  0  0  0
    2.4042   -2.9500    0.0000 C   0  0  0  0  0  0  0  0  0  0  0  0
    2.8667   -3.4875    0.0000 C   0  0  0  0  0  0  0  0  0  0  0  0
    3.9542   -0.7500    0.0000 C   0  0  0  0  0  0  0  0  0  0  0  0
    9.0125   -3.9042    0.0000 C   0  0  0  0  0  0  0  0  0  0  0  0
    6.2167   -6.0792    0.0000 C   0  0  0  0  0  0  0  0  0  0  0  0
  2 10  1  0
  3  4  1  0
  4  7  1  0
  5  1  1  0
  6  2  1  0
  7  1  1  0
  8  5  1  0
  9 11  1  0
 10 12  1  0
 11  1  1  0
 12  1  1  0
  3 13  1  1
 14  6  1  0
  5 15  1  1
 16 17  1  0
  7 17  1  6
 18 15  1  0
  2 19  1  1
 20 18  2  0
  4 21  1  0
  9 22  1  0
 10 23  1  1
 14 24  1  1
 25  6  1  0
 26  6  1  0
  4 27  1  1
  9 28  1  1
 29 18  1  0
  8  9  1  0
 16  8  1  0
  2  3  1  0
 13 14  1  0
M  END
>  <ID>  (1614) 


>  <MOLENAME>  (1614) 
GRAYANOTOXIN I

>  <therap>  (1614) 
nan

>  <ref>  (1614) 
Tet Letters 1961: 59; 1962: 215; 1964: 1329

>  <cas#>  (1614) 
4720-09-6

>  <source>  (1614) 
Leucothoe grayana

>  <status>  (1614) 
undetermined activity

>  <tradename>  (1614) 
nan

>  <SMILES>  (1614) 
CC(=O)O[C@@H]1C2CC[C@@H]3C1(C[C@@H](O)[C@@]1(O)[C@@H](C[C@H](O)C1(C)C)[C@]3(C)O)C[C@@]2(C)O

>  <standardized_failed>  (1614) 
False

$$$$

     RDKit          2D

 22 24  0  0  0  0  0  0  0  0999 V2000
   -0.0708   -0.7000    0.0000 C   0  0  0  0  0  0  0  0  0  0  0  0
    0.6417   -1.1125    0.0000 C   0  0  0  0  0  0  0  0  0  0  0  0
    1.3542    0.1333    0.0000 C   0  0  0  0  0  0  0  0  0  0  0  0
    1.3542   -0.6917    0.0000 C   0  0  0  0  0  0  0  0  0  0  0  0
   -0.0708    0.1250    0.0000 C   0  0  0  0  0  0  0  0  0  0  0  0
    0.6375    0.5458    0.0000 O   0  0  0  0  0  0  0  0  0  0  0  0
   -0.7875   -1.1167    0.0000 C   0  0  0  0  0  0  0  0  0  0  0  0
   -0.7875    0.5375    0.0000 C   0  0  0  0  0  0  0  0  0  0  0  0
   -1.5000   -0.7042    0.0000 C   0  0  0  0  0  0  0  0  0  0  0  0
    2.0625    0.5500    0.0000 C   0  0  0  0  0  0  0  0  0  0  0  0
   -1.5000    0.1250    0.0000 C   0  0  0  0  0  0  0  0  0  0  0  0
    0.6417   -1.9375    0.0000 O   0  0  0  0  0  0  0  0  0  0  0  0
    2.0542    1.3708    0.0000 C   0  0  0  0  0  0  0  0  0  0  0  0
    2.7792    0.1375    0.0000 C   0  0  0  0  0  0  0  0  0  0  0  0
   -0.7958   -1.9417    0.0000 O   0  0  0  0  0  0  0  0  0  0  0  0
    3.4875    1.3833    0.0000 C   0  0  0  0  0  0  0  0  0  0  0  0
    2.7667    1.7875    0.0000 C   0  0  0  0  0  0  0  0  0  0  0  0
    3.4917    0.5583    0.0000 C   0  0  0  0  0  0  0  0  0  0  0  0
   -2.2208    0.5375    0.0000 O   0  0  0  0  0  0  0  0  0  0  0  0
    4.2000    1.7958    0.0000 O   0  0  0  0  0  0  0  0  0  0  0  0
   -2.2208    1.3625    0.0000 C   0  0  0  0  0  0  0  0  0  0  0  0
    4.1917    2.6208    0.0000 C   0  0  0  0  0  0  0  0  0  0  0  0
  2  1  1  0
  3  6  1  0
  4  2  1  0
  5  1  2  0
  6  5  1  0
  7  1  1  0
  8  5  1  0
  9  7  2  0
 10  3  1  0
 11  9  1  0
 12  2  2  0
 13 10  2  0
 14 10  1  0
 15  7  1  0
 16 18  1  0
 17 13  1  0
 18 14  2  0
 19 11  1  0
 20 16  1  0
 21 19  1  0
 22 20  1  0
  4  3  2  0
  8 11  2  0
 17 16  2  0
M  END
>  <ID>  (1615) 


>  <MOLENAME>  (1615) 
APIGENIN DIMETHYL ETHER

>  <therap>  (1615) 
nan

>  <ref>  (1615) 
nan

>  <cas#>  (1615) 
5728-44-9

>  <source>  (1615) 
common plant metabolite

>  <status>  (1615) 
undetermined activity

>  <tradename>  (1615) 
nan

>  <SMILES>  (1615) 
COc1ccc(-c2cc(=O)c3c(cc(OC)cc3O)o2)cc1

>  <standardized_failed>  (1615) 
False

$$$$

     RDKit          2D

 18 19  0  0  0  0  0  0  0  0999 V2000
    3.3042   -0.6292    0.0000 N   0  0  0  0  0  0  0  0  0  0  0  0
    2.5042   -0.8542    0.0000 C   0  0  0  0  0  0  0  0  0  0  0  0
    3.5167   -1.4417    0.0000 C   0  0  0  0  0  0  0  0  0  0  0  0
    2.7167   -1.6542    0.0000 C   0  0  0  0  0  0  0  0  0  0  0  0
    3.8917   -0.0417    0.0000 C   0  0  0  0  0  0  0  0  0  0  0  0
    4.3292   -1.6542    0.0000 S   0  0  0  0  0  0  0  0  0  0  0  0
    4.7042   -0.2542    0.0000 C   0  0  0  0  0  0  0  0  0  0  0  0
    3.6792    0.7708    0.0000 C   0  0  0  0  0  0  0  0  0  0  0  0
    4.9167   -1.0667    0.0000 C   0  0  0  0  0  0  0  0  0  0  0  0
    1.7792   -0.4417    0.0000 O   0  0  0  0  0  0  0  0  0  0  0  0
    5.2917    0.3333    0.0000 C   0  0  0  0  0  0  0  0  0  0  0  0
    6.3042   -0.6875    0.0000 C   0  0  0  0  0  0  0  0  0  0  0  0
    2.6667   -2.3375    0.0000 N   0  0  0  0  0  0  0  0  0  0  0  0
    2.8792    0.9833    0.0000 O   0  0  0  0  0  0  0  0  0  0  0  0
    6.0917    0.1125    0.0000 O   0  0  0  0  0  0  0  0  0  0  0  0
    5.7167   -1.2667    0.0000 O   0  0  0  0  0  0  0  0  0  0  0  0
    4.2667    1.3583    0.0000 O   0  0  0  0  0  0  0  0  0  0  0  0
    7.0917   -0.9042    0.0000 C   0  0  0  0  0  0  0  0  0  0  0  0
  2  1  1  0
  3  1  1  0
  4  3  1  0
  5  1  1  0
  6  3  1  0
  7  5  2  0
  8  5  1  0
  9  7  1  0
 10  2  2  0
 11  7  1  0
 12 15  1  0
  4 13  1  6
 14  8  2  0
 15 11  1  0
 16 12  2  0
 17  8  1  0
 18 12  1  0
  2  4  1  0
  6  9  1  0
M  END
>  <ID>  (1616) 


>  <MOLENAME>  (1616) 
7-AMINOCEPHALOSPORANIC ACID

>  <therap>  (1616) 
nan

>  <ref>  (1616) 
Biochem J 79:48 (1961); JACS 84:3400 (1962)

>  <cas#>  (1616) 
957-68-6

>  <source>  (1616) 
derivative of Cephalosporin C

>  <status>  (1616) 
undetermined activity

>  <tradename>  (1616) 
nan

>  <SMILES>  (1616) 
CC(=O)OCC1=C(C(=O)O)N2C(=O)[C@@H](N)C2SC1

>  <standardized_failed>  (1616) 
False

$$$$

     RDKit          2D

 46 51  0  0  0  0  0  0  0  0999 V2000
    5.3292   -1.1542    0.0000 C   0  0  0  0  0  0  0  0  0  0  0  0
    6.0042   -0.7542    0.0000 C   0  0  0  0  0  0  0  0  0  0  0  0
    5.3292   -1.9667    0.0000 C   0  0  0  0  0  0  0  0  0  0  0  0
    3.9042   -1.9667    0.0000 C   0  0  0  0  0  0  0  0  0  0  0  0
    4.5917   -2.3625    0.0000 C   0  0  0  0  0  0  0  0  0  0  0  0
    3.9042   -1.1542    0.0000 C   0  0  0  0  0  0  0  0  0  0  0  0
    6.0792   -1.5917    0.0000 C   0  0  0  0  0  0  0  0  0  0  0  0
    4.5917   -0.7542    0.0000 O   0  0  0  0  0  0  0  0  0  0  0  0
    2.5000   -1.1542    0.0000 C   0  0  0  0  0  0  0  0  0  0  0  0
    2.5000   -1.9667    0.0000 C   0  0  0  0  0  0  0  0  0  0  0  0
    5.5667   -0.2292    0.0000 O   0  0  0  0  0  0  0  0  0  0  0  0
    3.2000   -2.3625    0.0000 C   0  0  0  0  0  0  0  0  0  0  0  0
    3.2000   -0.7542    0.0000 C   0  0  0  0  0  0  0  0  0  0  0  0
    6.0042   -2.3625    0.0000 C   0  0  0  0  0  0  0  0  0  0  0  0
    5.0292   -0.2292    0.0000 C   0  0  0  0  0  0  0  0  0  0  0  0
    6.7125   -1.9667    0.0000 C   0  0  0  0  0  0  0  0  0  0  0  0
    6.7125   -1.1542    0.0000 C   0  0  0  0  0  0  0  0  0  0  0  0
    6.7125   -2.7417    0.0000 C   0  0  0  0  0  0  0  0  0  0  0  0
    1.8042   -2.3625    0.0000 C   0  0  0  0  0  0  0  0  0  0  0  0
    1.8042   -0.7542    0.0000 O   0  0  0  0  0  0  0  0  0  0  0  0
    6.7042   -0.0625    0.0000 C   0  0  0  0  0  0  0  0  0  0  0  0
    6.3542    0.6250    0.0000 C   0  0  0  0  0  0  0  0  0  0  0  0
    3.2000    0.0458    0.0000 C   0  0  0  0  0  0  0  0  0  0  0  0
    7.5292    1.6208    0.0000 C   0  0  0  0  0  0  0  0  0  0  0  0
    6.6917    1.2833    0.0000 C   0  0  0  0  0  0  0  0  0  0  0  0
    1.1167   -1.9667    0.0000 C   0  0  0  0  0  0  0  0  0  0  0  0
    1.1167   -1.1542    0.0000 C   0  0  0  0  0  0  0  0  0  0  0  0
    2.5000    0.4500    0.0000 C   0  0  0  0  0  0  0  0  0  0  0  0
    4.5917   -3.1792    0.0000 O   0  0  0  0  0  0  0  0  0  0  0  0
    7.5750    2.4708    0.0000 O   0  0  0  0  0  0  0  0  0  0  0  0
    2.5000    1.2833    0.0000 C   0  0  0  0  0  0  0  0  0  0  0  0
   -1.6958   -1.1500    0.0000 C   0  0  0  0  0  0  0  0  0  0  0  0
   -0.9833   -0.7375    0.0000 C   0  0  0  0  0  0  0  0  0  0  0  0
    3.2000   -3.1792    0.0000 O   0  0  0  0  0  0  0  0  0  0  0  0
    7.4125   -0.7542    0.0000 O   0  0  0  0  0  0  0  0  0  0  0  0
    8.2292    1.2500    0.0000 O   0  0  0  0  0  0  0  0  0  0  0  0
    4.2750   -0.2292    0.0000 C   0  0  0  0  0  0  0  0  0  0  0  0
    4.5917    0.3458    0.0000 C   0  0  0  0  0  0  0  0  0  0  0  0
   -0.3000   -1.1542    0.0000 C   0  0  0  0  0  0  0  0  0  0  0  0
    0.4042   -0.7542    0.0000 C   0  0  0  0  0  0  0  0  0  0  0  0
    6.0417    1.9375    0.0000 C   0  0  0  0  0  0  0  0  0  0  0  0
    1.1167   -0.1917    0.0000 C   0  0  0  0  0  0  0  0  0  0  0  0
    1.8042    1.6583    0.0000 C   0  0  0  0  0  0  0  0  0  0  0  0
    3.2000    1.6583    0.0000 C   0  0  0  0  0  0  0  0  0  0  0  0
   -1.6708   -1.8667    0.0000 C   0  0  0  0  0  0  0  0  0  0  0  0
   -2.4000   -0.7375    0.0000 C   0  0  0  0  0  0  0  0  0  0  0  0
  2  1  1  0
  3  1  1  0
  4  6  2  0
  5  3  1  0
  6  8  1  0
  7  1  1  0
  8  1  1  0
  9 13  2  0
 10  9  1  0
 11  2  1  0
 12  4  1  0
 13  6  1  0
 14  3  2  0
 15  7  1  0
 16 18  1  0
 17  2  1  0
 18  7  1  0
 19 10  1  0
 20  9  1  0
 21  2  1  0
 22 21  1  0
 23 13  1  0
 24 25  1  0
 25 22  2  0
 26 27  1  0
 27 20  1  0
 28 23  1  0
 29  5  2  0
 30 24  2  0
 31 28  2  0
 32 33  2  0
 33 39  1  0
 34 12  1  0
 35 17  1  0
 36 24  1  0
 37 15  1  0
 38 15  1  0
 39 40  1  0
 40 27  1  0
 41 25  1  0
 42 27  1  0
 43 31  1  0
 44 31  1  0
 45 32  1  0
 46 32  1  0
 11 15  1  0
  4  5  1  0
 16 17  1  0
 14 16  1  0
 10 12  2  0
 19 26  2  0
M  END
>  <ID>  (1617) 


>  <MOLENAME>  (1617) 
DIHYDROGAMBOGIC ACID

>  <therap>  (1617) 
nan

>  <ref>  (1617) 
Tetrahedron 21:1453 (1965)

>  <cas#>  (1617) 
nan

>  <source>  (1617) 
derivative

>  <status>  (1617) 
undetermined activity

>  <tradename>  (1617) 
nan

>  <SMILES>  (1617) 
CC(C)=CCCC1(C)C=Cc2c(O)c3c(OC45C(=CC6CC4C(C)(C)OC5(C/C=C(/C)C(=O)O)C6O)C3=O)c(CC=C(C)C)c2O1

>  <standardized_failed>  (1617) 
False

$$$$

     RDKit          2D

 14 13  0  0  0  0  0  0  0  0999 V2000
    4.6625   -0.9292    0.0000 N   0  0  0  0  0  0  0  0  0  0  0  0
    3.2375   -2.5792    0.0000 N   0  0  0  0  0  0  0  0  0  0  0  0
    7.5125   -0.9292    0.0000 N   0  0  0  0  0  0  0  0  0  0  0  0
    5.3667   -3.8125    0.0000 N   0  0  0  0  0  0  0  0  0  0  0  0
    3.9417   -3.8125    0.0000 C   0  0  0  0  0  0  0  0  0  0  0  0
    6.0875   -0.9292    0.0000 C   0  0  0  0  0  0  0  0  0  0  0  0
    5.3750   -1.3417    0.0000 C   0  0  0  0  0  0  0  0  0  0  0  0
    3.2292   -3.4000    0.0000 C   0  0  0  0  0  0  0  0  0  0  0  0
    4.6542   -3.4000    0.0000 C   0  0  0  0  0  0  0  0  0  0  0  0
    6.8000   -1.3417    0.0000 C   0  0  0  0  0  0  0  0  0  0  0  0
    2.5250   -2.1667    0.0000 C   0  0  0  0  0  0  0  0  0  0  0  0
    3.9500   -1.3417    0.0000 C   0  0  0  0  0  0  0  0  0  0  0  0
    3.2375   -0.9292    0.0000 C   0  0  0  0  0  0  0  0  0  0  0  0
    2.5250   -1.3417    0.0000 C   0  0  0  0  0  0  0  0  0  0  0  0
  2 11  1  0
  3 10  1  0
  4  9  1  0
  5  8  1  0
  6  7  1  0
  7  1  1  0
  8  2  1  0
  9  5  1  0
 10  6  1  0
 11 14  1  0
 12  1  1  0
 13 12  1  0
 14 13  1  0
M  END
>  <ID>  (1618) 


>  <MOLENAME>  (1618) 
SPERMINE

>  <therap>  (1618) 
immune modulator

>  <ref>  (1618) 
Differentiation 19:1 (1981); Cancer Res 42:3248 (1982)

>  <cas#>  (1618) 
71-44-3

>  <source>  (1618) 
all animal tissue, fungi

>  <status>  (1618) 
experimental

>  <tradename>  (1618) 
nan

>  <SMILES>  (1618) 
NCCCNCCCCNCCCN

>  <standardized_failed>  (1618) 
False

$$$$

     RDKit          2D

 23 25  0  0  0  0  0  0  0  0999 V2000
    2.7667   -2.3167    0.0000 C   0  0  0  0  0  0  0  0  0  0  0  0
    4.2000   -2.3167    0.0000 C   0  0  0  0  0  0  0  0  0  0  0  0
    3.4875   -2.7292    0.0000 C   0  0  0  0  0  0  0  0  0  0  0  0
    2.7667   -1.4917    0.0000 C   0  0  0  0  0  0  0  0  0  0  0  0
    2.0542   -1.0792    0.0000 C   0  0  0  0  0  0  0  0  0  0  0  0
    3.4792   -1.0792    0.0000 O   0  0  0  0  0  0  0  0  0  0  0  0
    4.1917   -1.4875    0.0000 C   0  0  0  0  0  0  0  0  0  0  0  0
    1.3417   -1.5000    0.0000 C   0  0  0  0  0  0  0  0  0  0  0  0
    2.0542   -2.7375    0.0000 C   0  0  0  0  0  0  0  0  0  0  0  0
    1.3417   -2.3250    0.0000 C   0  0  0  0  0  0  0  0  0  0  0  0
    4.9125   -2.7250    0.0000 C   0  0  0  0  0  0  0  0  0  0  0  0
    3.4792   -3.5542    0.0000 O   0  0  0  0  0  0  0  0  0  0  0  0
    2.0500   -0.2542    0.0000 O   0  0  0  0  0  0  0  0  0  0  0  0
    4.9167   -3.5500    0.0000 C   0  0  0  0  0  0  0  0  0  0  0  0
    5.6167   -2.3042    0.0000 C   0  0  0  0  0  0  0  0  0  0  0  0
    0.6250   -1.0792    0.0000 O   0  0  0  0  0  0  0  0  0  0  0  0
    0.6250   -2.7292    0.0000 O   0  0  0  0  0  0  0  0  0  0  0  0
    6.3417   -3.5417    0.0000 C   0  0  0  0  0  0  0  0  0  0  0  0
    6.3375   -2.7125    0.0000 C   0  0  0  0  0  0  0  0  0  0  0  0
    5.6292   -3.9542    0.0000 C   0  0  0  0  0  0  0  0  0  0  0  0
    7.0542   -3.9542    0.0000 O   0  0  0  0  0  0  0  0  0  0  0  0
    0.6167   -3.5542    0.0000 C   0  0  0  0  0  0  0  0  0  0  0  0
    7.0542   -4.7792    0.0000 C   0  0  0  0  0  0  0  0  0  0  0  0
  2  3  1  0
  3  1  1  0
  4  1  2  0
  5  4  1  0
  6  4  1  0
  7  6  1  0
  8 10  1  0
  9  1  1  0
 10  9  2  0
 11  2  1  0
 12  3  2  0
 13  5  1  0
 14 11  2  0
 15 11  1  0
 16  8  1  0
 17 10  1  0
 18 19  1  0
 19 15  2  0
 20 14  1  0
 21 18  1  0
 22 17  1  0
 23 21  1  0
  8  5  2  0
  7  2  2  0
 18 20  2  0
M  END
>  <ID>  (1619) 


>  <MOLENAME>  (1619) 
DIPTERYXIN

>  <therap>  (1619) 
nan

>  <ref>  (1619) 
Phytochemistry 13:1943 (1974)

>  <cas#>  (1619) 
53948-01-9

>  <source>  (1619) 
Dipteryx odorata

>  <status>  (1619) 
undetermined activity

>  <tradename>  (1619) 
nan

>  <SMILES>  (1619) 
COc1ccc(-c2coc3c(cc(OC)c(O)c3O)c2=O)cc1

>  <standardized_failed>  (1619) 
False

$$$$

     RDKit          2D

 39 44  0  0  0  0  0  0  0  0999 V2000
    8.9375   -8.2042    0.0000 C   0  0  0  0  0  0  0  0  0  0  0  0
    8.9375   -7.3792    0.0000 C   0  0  0  0  0  0  0  0  0  0  0  0
    3.9250   -9.4542    0.0000 C   0  0  0  0  0  0  0  0  0  0  0  0
    6.7917   -8.6167    0.0000 C   0  0  0  0  0  0  0  0  0  0  0  0
    3.2125   -9.8667    0.0000 C   0  0  0  0  0  0  0  0  0  0  0  0
    2.4875   -9.4625    0.0000 C   0  0  0  0  0  0  0  0  0  0  0  0
    8.2250   -8.6167    0.0000 C   0  0  0  0  0  0  0  0  0  0  0  0
    7.5042   -8.2042    0.0000 C   0  0  0  0  0  0  0  0  0  0  0  0
    3.9167   -8.6292    0.0000 O   0  0  0  0  0  0  0  0  0  0  0  0
   10.0625   -6.3667    0.0000 C   0  0  0  0  0  0  0  0  0  0  0  0
    9.7250   -7.1250    0.0000 C   0  0  0  0  0  0  0  0  0  0  0  0
    2.4792   -8.6292    0.0000 C   0  0  0  0  0  0  0  0  0  0  0  0
   10.0000   -5.5500    0.0000 C   0  0  0  0  0  0  0  0  0  0  0  0
    6.7917   -9.4417    0.0000 C   0  0  0  0  0  0  0  0  0  0  0  0
    3.2042   -8.2167    0.0000 C   0  0  0  0  0  0  0  0  0  0  0  0
   10.7625   -5.2417    0.0000 C   0  0  0  0  0  0  0  0  0  0  0  0
    9.7250   -8.4542    0.0000 C   0  0  0  0  0  0  0  0  0  0  0  0
    8.2167   -6.9667    0.0000 C   0  0  0  0  0  0  0  0  0  0  0  0
    7.5042   -7.3792    0.0000 C   0  0  0  0  0  0  0  0  0  0  0  0
    4.6417   -9.8667    0.0000 O   0  0  0  0  0  0  0  0  0  0  0  0
   11.3000   -5.8667    0.0000 O   0  0  0  0  0  0  0  0  0  0  0  0
   10.2000   -7.7917    0.0000 C   0  0  0  0  0  0  0  0  0  0  0  0
    6.0792   -8.2042    0.0000 C   0  0  0  0  0  0  0  0  0  0  0  0
    8.2250   -9.4417    0.0000 C   0  0  0  0  0  0  0  0  0  0  0  0
   10.8625   -6.5667    0.0000 C   0  0  0  0  0  0  0  0  0  0  0  0
    6.0792   -9.8542    0.0000 C   0  0  0  0  0  0  0  0  0  0  0  0
    7.5042   -9.8542    0.0000 C   0  0  0  0  0  0  0  0  0  0  0  0
    6.7917   -7.7917    0.0000 C   0  0  0  0  0  0  0  0  0  0  0  0
    5.3625   -9.4417    0.0000 C   0  0  0  0  0  0  0  0  0  0  0  0
   10.9750   -4.4417    0.0000 O   0  0  0  0  0  0  0  0  0  0  0  0
    8.9417   -8.9417    0.0000 O   0  0  0  0  0  0  0  0  0  0  0  0
    3.2167  -10.6917    0.0000 O   0  0  0  0  0  0  0  0  0  0  0  0
    6.0792   -7.3792    0.0000 O   0  0  0  0  0  0  0  0  0  0  0  0
    1.7750   -9.8875    0.0000 O   0  0  0  0  0  0  0  0  0  0  0  0
    1.7500   -8.2250    0.0000 O   0  0  0  0  0  0  0  0  0  0  0  0
    5.3625   -8.6167    0.0000 C   0  0  0  0  0  0  0  0  0  0  0  0
    8.9125   -6.5667    0.0000 C   0  0  0  0  0  0  0  0  0  0  0  0
    3.2125   -7.3917    0.0000 C   0  0  0  0  0  0  0  0  0  0  0  0
    1.0500   -9.4792    0.0000 C   0  0  0  0  0  0  0  0  0  0  0  0
  2  1  1  0
  3 20  1  6
  4  8  1  0
  5  3  1  0
  6  5  1  0
  7  1  1  0
  8  7  1  0
  9  3  1  0
 11 10  1  0
 11  2  1  0
 12 15  1  0
 13 10  2  0
 14 27  1  6
 15  9  1  0
 16 13  1  0
 17  1  1  0
 18  2  1  0
 19  8  1  0
 29 20  1  1
 21 25  1  0
 22 17  1  0
 23  4  1  0
 24  7  1  0
 25 10  1  0
 26 14  1  0
 27 24  1  0
  4 28  1  1
 29 26  1  0
 30 16  2  0
  1 31  1  1
  5 32  1  1
 33 28  2  0
  6 34  1  6
 12 35  1  1
 36 23  1  0
  2 37  1  1
 15 38  1  6
 39 34  1  0
 11 22  1  1
 18 19  1  0
  4 14  1  0
 36 29  1  0
 21 16  1  0
 12  6  1  0
M  END
>  <ID>  (1620) 


>  <MOLENAME>  (1620) 
PERUVOSIDE

>  <therap>  (1620) 
cardiotonic

>  <ref>  (1620) 
Helv Chim Acta 35:673, 730, 1073; 36:370 (1952); 45:907 (1962); 46:2886 (1963)

>  <cas#>  (1620) 
1182-67-2

>  <source>  (1620) 
Thevetia peruviana

>  <status>  (1620) 
experimental

>  <tradename>  (1620) 
nan

>  <SMILES>  (1620) 
CO[C@@H]1[C@@H](O)[C@H](C)O[C@H](O[C@H]2CC[C@]3(C=O)C4CC[C@]5(C)[C@@H](C6=CC(=O)OC6)CC[C@]5(O)C4CC[C@@H]3C2)[C@H]1O

>  <standardized_failed>  (1620) 
False

$$$$

     RDKit          2D

 14 15  0  0  0  0  0  0  0  0999 V2000
   -0.8208    0.9000    0.0000 C   0  0  0  0  0  0  0  0  0  0  0  0
   -1.6625    1.7375    0.0000 C   0  0  0  0  0  0  0  0  0  0  0  0
   -0.8250    1.7375    0.0000 C   0  0  0  0  0  0  0  0  0  0  0  0
   -1.6625    0.9000    0.0000 C   0  0  0  0  0  0  0  0  0  0  0  0
   -0.3125    0.4125    0.0000 C   0  0  0  0  0  0  0  0  0  0  0  0
   -0.4583    2.3125    0.0000 C   0  0  0  0  0  0  0  0  0  0  0  0
    0.7167    1.2958    0.0000 C   0  0  0  0  0  0  0  0  0  0  0  0
    1.2625    1.8083    0.0000 C   0  0  0  0  0  0  0  0  0  0  0  0
    0.7167    0.5333    0.0000 C   0  0  0  0  0  0  0  0  0  0  0  0
   -0.5833   -0.3875    0.0000 C   0  0  0  0  0  0  0  0  0  0  0  0
    0.5292    2.3458    0.0000 C   0  0  0  0  0  0  0  0  0  0  0  0
   -1.6708    2.5833    0.0000 C   0  0  0  0  0  0  0  0  0  0  0  0
   -2.5083    1.7458    0.0000 C   0  0  0  0  0  0  0  0  0  0  0  0
    1.9292    1.8083    0.0000 C   0  0  0  0  0  0  0  0  0  0  0  0
  2  4  1  0
  3  1  1  0
  1  4  1  1
  1  5  1  0
  3  6  1  6
  7  9  1  0
  8  7  2  0
  9  5  1  0
 10  5  2  0
 11  6  1  0
 12  2  1  0
 13  2  1  0
 14  8  1  0
  3  2  1  0
  8 11  1  0
M  END
>  <ID>  (1621) 


>  <MOLENAME>  (1621) 
CARYOPHYLLENE [t(-)]

>  <therap>  (1621) 
nan

>  <ref>  (1621) 
nan

>  <cas#>  (1621) 
87-44-5

>  <source>  (1621) 
clove, cinnamon and many other oils

>  <status>  (1621) 
undetermined activity

>  <tradename>  (1621) 
nan

>  <SMILES>  (1621) 
C=C1C/C=C(\C)CC[C@@H]2[C@@H]1CC2(C)C

>  <standardized_failed>  (1621) 
False

$$$$

     RDKit          2D

 22 25  0  0  0  0  0  0  0  0999 V2000
    2.4417   -2.7167    0.0000 C   0  0  0  0  0  0  0  0  0  0  0  0
    3.2167   -2.4542    0.0000 C   0  0  0  0  0  0  0  0  0  0  0  0
    2.4417   -3.5375    0.0000 C   0  0  0  0  0  0  0  0  0  0  0  0
    3.7042   -3.1167    0.0000 C   0  0  0  0  0  0  0  0  0  0  0  0
    3.5500   -1.7042    0.0000 C   0  0  0  0  0  0  0  0  0  0  0  0
    4.3625   -1.6250    0.0000 C   0  0  0  0  0  0  0  0  0  0  0  0
    1.7292   -2.3000    0.0000 C   0  0  0  0  0  0  0  0  0  0  0  0
    1.7292   -3.9500    0.0000 C   0  0  0  0  0  0  0  0  0  0  0  0
    4.8417   -2.2792    0.0000 O   0  0  0  0  0  0  0  0  0  0  0  0
    1.0167   -2.7167    0.0000 C   0  0  0  0  0  0  0  0  0  0  0  0
    4.6917   -0.8792    0.0000 C   0  0  0  0  0  0  0  0  0  0  0  0
    1.0167   -3.5417    0.0000 C   0  0  0  0  0  0  0  0  0  0  0  0
    3.2292   -3.7875    0.0000 C   0  0  0  0  0  0  0  0  0  0  0  0
    3.0667   -1.0542    0.0000 C   0  0  0  0  0  0  0  0  0  0  0  0
    4.5125   -3.0292    0.0000 C   0  0  0  0  0  0  0  0  0  0  0  0
    4.2125   -0.2167    0.0000 C   0  0  0  0  0  0  0  0  0  0  0  0
    0.3042   -3.9500    0.0000 O   0  0  0  0  0  0  0  0  0  0  0  0
    3.4000   -0.3125    0.0000 C   0  0  0  0  0  0  0  0  0  0  0  0
    4.1125   -3.8292    0.0000 O   0  0  0  0  0  0  0  0  0  0  0  0
    5.5125   -0.8000    0.0000 O   0  0  0  0  0  0  0  0  0  0  0  0
    0.3042   -2.3042    0.0000 O   0  0  0  0  0  0  0  0  0  0  0  0
    4.5500    0.5333    0.0000 O   0  0  0  0  0  0  0  0  0  0  0  0
  2  1  2  0
  3  1  1  0
  4  2  1  0
  5  2  1  0
  6  5  2  0
  7  1  1  0
  8  3  2  0
  9  6  1  0
 10  7  2  0
 11  6  1  0
 12 10  1  0
 13  3  1  0
 14  5  1  0
 15  4  1  0
 16 18  1  0
 17 12  2  0
 18 14  2  0
 19  4  1  0
 20 11  1  0
 21 10  1  0
 22 16  1  0
 13  4  1  0
  8 12  1  0
 15  9  1  0
 11 16  2  0
M  END
>  <ID>  (1622) 


>  <MOLENAME>  (1622) 
HEMATEIN

>  <therap>  (1622) 
nan

>  <ref>  (1622) 
J Chem Soc 93: 115 (1908)

>  <cas#>  (1622) 
475-25-2

>  <source>  (1622) 
logwood, Haematoxylon spp.

>  <status>  (1622) 
undetermined activity

>  <tradename>  (1622) 
nan

>  <SMILES>  (1622) 
O=C1C=C2CC3(O)COc4c(ccc(O)c4O)C3=C2C=C1O

>  <standardized_failed>  (1622) 
False

$$$$

     RDKit          2D

 31 35  0  0  0  0  0  0  0  0999 V2000
    6.1042   -2.7542    0.0000 C   0  0  0  0  0  0  0  0  0  0  0  0
    6.9125   -3.2042    0.0000 C   0  0  0  0  0  0  0  0  0  0  0  0
    6.1042   -1.8167    0.0000 C   0  0  0  0  0  0  0  0  0  0  0  0
    5.3042   -3.2042    0.0000 C   0  0  0  0  0  0  0  0  0  0  0  0
    7.7250   -2.7542    0.0000 C   0  0  0  0  0  0  0  0  0  0  0  0
    5.3042   -1.3542    0.0000 C   0  0  0  0  0  0  0  0  0  0  0  0
    4.4917   -1.8167    0.0000 C   0  0  0  0  0  0  0  0  0  0  0  0
    4.4917   -2.7542    0.0000 C   0  0  0  0  0  0  0  0  0  0  0  0
    6.9125   -1.3542    0.0000 O   0  0  0  0  0  0  0  0  0  0  0  0
    7.7250   -1.8167    0.0000 C   0  0  0  0  0  0  0  0  0  0  0  0
    5.3042   -0.4167    0.0000 C   0  0  0  0  0  0  0  0  0  0  0  0
    5.3042   -4.1417    0.0000 O   0  0  0  0  0  0  0  0  0  0  0  0
    3.6792   -1.3542    0.0000 O   0  0  0  0  0  0  0  0  0  0  0  0
    8.5292   -3.2042    0.0000 C   0  0  0  0  0  0  0  0  0  0  0  0
    3.6625   -3.2042    0.0000 C   0  0  0  0  0  0  0  0  0  0  0  0
    4.5125    0.0458    0.0000 C   0  0  0  0  0  0  0  0  0  0  0  0
    9.3292   -2.7542    0.0000 C   0  0  0  0  0  0  0  0  0  0  0  0
    3.6792   -0.4167    0.0000 C   0  0  0  0  0  0  0  0  0  0  0  0
   10.1417   -3.2042    0.0000 C   0  0  0  0  0  0  0  0  0  0  0  0
    4.4625   -4.6333    0.0000 C   0  0  0  0  0  0  0  0  0  0  0  0
    6.9125   -4.1417    0.0000 O   0  0  0  0  0  0  0  0  0  0  0  0
   10.1417   -4.1417    0.0000 C   0  0  0  0  0  0  0  0  0  0  0  0
    8.5292   -4.1417    0.0000 C   0  0  0  0  0  0  0  0  0  0  0  0
    9.3292   -4.6042    0.0000 C   0  0  0  0  0  0  0  0  0  0  0  0
    3.6500   -4.1500    0.0000 C   0  0  0  0  0  0  0  0  0  0  0  0
   10.9750   -2.7542    0.0000 O   0  0  0  0  0  0  0  0  0  0  0  0
   10.9750   -4.6042    0.0000 O   0  0  0  0  0  0  0  0  0  0  0  0
    3.6917    0.4958    0.0000 C   0  0  0  0  0  0  0  0  0  0  0  0
    2.8125   -0.9042    0.0000 C   0  0  0  0  0  0  0  0  0  0  0  0
    4.4542   -5.5792    0.0000 C   0  0  0  0  0  0  0  0  0  0  0  0
    3.5417   -4.8750    0.0000 C   0  0  0  0  0  0  0  0  0  0  0  0
  2  1  1  0
  3  1  2  0
  4  1  1  0
  5  2  1  0
  6  3  1  0
  7  6  2  0
  8  4  2  0
  9  3  1  0
 10  9  1  0
 11  6  1  0
 12  4  1  0
 13  7  1  0
 14  5  1  0
 15  8  1  0
 16 11  2  0
 17 14  2  0
 18 13  1  0
 19 17  1  0
 20 12  1  0
 21  2  2  0
 22 24  1  0
 23 14  1  0
 24 23  2  0
 25 20  1  0
 26 19  1  0
 27 22  1  0
 28 18  1  0
 29 18  1  0
 30 20  1  0
 31 20  1  0
  8  7  1  0
  5 10  2  0
 25 15  1  0
 16 18  1  0
 19 22  2  0
M  END
>  <ID>  (1623) 


>  <MOLENAME>  (1623) 
ISOPOMIFERIN

>  <therap>  (1623) 
nan

>  <ref>  (1623) 
JACS 61:2832 (1939); 63:422 (1941); 68:406 (1945)

>  <cas#>  (1623) 
nan

>  <source>  (1623) 
Maclura pomifera

>  <status>  (1623) 
undetermined activity

>  <tradename>  (1623) 
nan

>  <SMILES>  (1623) 
CC1(C)C=Cc2c(O1)c1c(OC(C)(C)CC1)c1c2occ(-c2cc(O)c(O)cc2)c1=O

>  <standardized_failed>  (1623) 
False

$$$$

     RDKit          2D

 33 38  0  0  0  0  0  0  0  0999 V2000
    2.9875    0.6958    0.0000 C   0  0  0  0  0  0  0  0  0  0  0  0
    5.0667    1.4333    0.0000 C   0  0  0  0  0  0  0  0  0  0  0  0
    2.9875   -0.1542    0.0000 C   0  0  0  0  0  0  0  0  0  0  0  0
    0.8417   -0.5625    0.0000 C   0  0  0  0  0  0  0  0  0  0  0  0
    3.8042    0.9458    0.0000 C   0  0  0  0  0  0  0  0  0  0  0  0
    5.0542    0.5458    0.0000 O   0  0  0  0  0  0  0  0  0  0  0  0
    4.2875    0.2625    0.0000 C   0  0  0  0  0  0  0  0  0  0  0  0
    1.5542   -0.1542    0.0000 C   0  0  0  0  0  0  0  0  0  0  0  0
    2.2750   -0.5625    0.0000 C   0  0  0  0  0  0  0  0  0  0  0  0
    3.8042   -0.4125    0.0000 C   0  0  0  0  0  0  0  0  0  0  0  0
    4.2917    1.6250    0.0000 C   0  0  0  0  0  0  0  0  0  0  0  0
    5.8917    1.5333    0.0000 O   0  0  0  0  0  0  0  0  0  0  0  0
    0.8417   -1.4167    0.0000 C   0  0  0  0  0  0  0  0  0  0  0  0
    2.2750    1.0875    0.0000 C   0  0  0  0  0  0  0  0  0  0  0  0
    1.5542    0.6958    0.0000 C   0  0  0  0  0  0  0  0  0  0  0  0
    0.1167   -0.1542    0.0000 C   0  0  0  0  0  0  0  0  0  0  0  0
    2.2750   -1.4167    0.0000 C   0  0  0  0  0  0  0  0  0  0  0  0
   -1.3458   -2.6542    0.0000 C   0  0  0  0  0  0  0  0  0  0  0  0
    5.6250    2.1083    0.0000 C   0  0  0  0  0  0  0  0  0  0  0  0
    0.1167   -1.7875    0.0000 C   0  0  0  0  0  0  0  0  0  0  0  0
    1.5542   -1.7875    0.0000 C   0  0  0  0  0  0  0  0  0  0  0  0
   -1.3458   -1.8417    0.0000 O   0  0  0  0  0  0  0  0  0  0  0  0
   -0.6083   -1.4167    0.0000 C   0  0  0  0  0  0  0  0  0  0  0  0
   -2.0333   -3.1167    0.0000 O   0  0  0  0  0  0  0  0  0  0  0  0
    2.9875    1.5458    0.0000 C   0  0  0  0  0  0  0  0  0  0  0  0
    6.7292    1.3125    0.0000 C   0  0  0  0  0  0  0  0  0  0  0  0
   -0.6083   -0.5625    0.0000 C   0  0  0  0  0  0  0  0  0  0  0  0
    0.8417    0.2625    0.0000 C   0  0  0  0  0  0  0  0  0  0  0  0
    6.4542    1.7833    0.0000 C   0  0  0  0  0  0  0  0  0  0  0  0
    7.1125    2.1083    0.0000 C   0  0  0  0  0  0  0  0  0  0  0  0
    4.0667    2.4333    0.0000 C   0  0  0  0  0  0  0  0  0  0  0  0
   -0.6625   -3.1250    0.0000 C   0  0  0  0  0  0  0  0  0  0  0  0
    7.7875    2.1083    0.0000 C   0  0  0  0  0  0  0  0  0  0  0  0
  2 11  1  0
  3  1  1  0
  4  8  1  0
  5  1  1  0
  6  7  1  0
  7  5  1  0
  8 15  1  0
  9  3  1  0
 10  3  1  0
 11  5  1  0
  2 12  1  0
 13  4  1  0
 14  1  1  0
 15 14  1  0
 16  4  1  0
 17  9  1  0
 18 22  1  0
  2 19  1  6
 13 20  1  6
 21 17  1  0
 23 22  1  1
 23 27  1  0
 24 18  2  0
  1 25  1  1
 26 12  1  0
 27 16  1  0
  4 28  1  1
 29 19  1  0
 30 29  1  0
 11 31  1  6
 32 18  1  0
 33 30  1  0
 10  7  1  0
  8  9  1  0
  6  2  1  0
 21 13  1  0
 26 30  1  0
 23 20  1  0
M  END
>  <ID>  (1624) 


>  <MOLENAME>  (1624) 
SMILAGENIN ACETATE

>  <therap>  (1624) 
nan

>  <ref>  (1624) 
nan

>  <cas#>  (1624) 
nan

>  <source>  (1624) 
Smilax ornata, Agave & Yucca spp

>  <status>  (1624) 
undetermined activity

>  <tradename>  (1624) 
nan

>  <SMILES>  (1624) 
CC(=O)O[C@H]1CC[C@]2(C)C3CC[C@@]4(C)C(CC5O[C@@]6(CCC(C)CO6)[C@@H](C)C54)C3CC[C@@H]2C1

>  <standardized_failed>  (1624) 
False

$$$$

     RDKit          2D

 13 14  0  0  0  0  0  0  0  0999 V2000
    4.5750   -2.0917    0.0000 C   0  0  0  0  0  0  0  0  0  0  0  0
    5.2875   -1.6750    0.0000 O   0  0  0  0  0  0  0  0  0  0  0  0
    3.8542   -1.6792    0.0000 C   0  0  0  0  0  0  0  0  0  0  0  0
    4.5667   -2.9167    0.0000 C   0  0  0  0  0  0  0  0  0  0  0  0
    6.0042   -2.0917    0.0000 C   0  0  0  0  0  0  0  0  0  0  0  0
    5.2875   -3.3292    0.0000 C   0  0  0  0  0  0  0  0  0  0  0  0
    3.1417   -2.0917    0.0000 C   0  0  0  0  0  0  0  0  0  0  0  0
    3.1417   -2.9167    0.0000 C   0  0  0  0  0  0  0  0  0  0  0  0
    6.0042   -2.9167    0.0000 C   0  0  0  0  0  0  0  0  0  0  0  0
    3.8542   -3.3292    0.0000 C   0  0  0  0  0  0  0  0  0  0  0  0
    6.7167   -1.6792    0.0000 O   0  0  0  0  0  0  0  0  0  0  0  0
    2.4292   -1.6792    0.0000 O   0  0  0  0  0  0  0  0  0  0  0  0
    2.4292   -3.3292    0.0000 O   0  0  0  0  0  0  0  0  0  0  0  0
  2  1  1  0
  3  1  2  0
  4  1  1  0
  5  2  1  0
  6  4  1  0
  7  3  1  0
  8 10  1  0
  9  6  2  0
 10  4  2  0
 11  5  2  0
 12  7  1  0
 13  8  1  0
  7  8  2  0
  9  5  1  0
M  END
>  <ID>  (1625) 


>  <MOLENAME>  (1625) 
ESCULETIN

>  <therap>  (1625) 
antifungal

>  <ref>  (1625) 
nan

>  <cas#>  (1625) 
305-01-1

>  <source>  (1625) 
Aesculus and Solanaceae spp

>  <status>  (1625) 
experimental

>  <tradename>  (1625) 
nan

>  <SMILES>  (1625) 
O=c1ccc2cc(O)c(O)cc2o1

>  <standardized_failed>  (1625) 
False

$$$$

     RDKit          2D

 41 45  0  0  0  0  0  0  0  0999 V2000
    7.6042   -3.3417    0.0000 C   0  0  0  0  0  0  0  0  0  0  0  0
    6.7125   -3.8250    0.0000 C   0  0  0  0  0  0  0  0  0  0  0  0
    4.9417   -3.8250    0.0000 C   0  0  0  0  0  0  0  0  0  0  0  0
    7.6042   -2.3292    0.0000 C   0  0  0  0  0  0  0  0  0  0  0  0
    5.8125   -3.3417    0.0000 C   0  0  0  0  0  0  0  0  0  0  0  0
    4.9417   -4.8500    0.0000 C   0  0  0  0  0  0  0  0  0  0  0  0
    8.4750   -1.8000    0.0000 C   0  0  0  0  0  0  0  0  0  0  0  0
    4.0750   -5.3625    0.0000 C   0  0  0  0  0  0  0  0  0  0  0  0
    6.7125   -4.8292    0.0000 C   0  0  0  0  0  0  0  0  0  0  0  0
    4.0750   -3.3417    0.0000 C   0  0  0  0  0  0  0  0  0  0  0  0
    3.1917   -4.8500    0.0000 C   0  0  0  0  0  0  0  0  0  0  0  0
    8.4750   -3.8250    0.0000 C   0  0  0  0  0  0  0  0  0  0  0  0
    9.3250   -2.3292    0.0000 O   0  0  0  0  0  0  0  0  0  0  0  0
    5.8625   -5.3250    0.0000 C   0  0  0  0  0  0  0  0  0  0  0  0
    8.4667   -0.9750    0.0000 C   0  0  0  0  0  0  0  0  0  0  0  0
    9.3250   -3.3417    0.0000 C   0  0  0  0  0  0  0  0  0  0  0  0
    3.1917   -3.8250    0.0000 C   0  0  0  0  0  0  0  0  0  0  0  0
    6.7125   -1.8000    0.0000 C   0  0  0  0  0  0  0  0  0  0  0  0
    5.8125   -2.3292    0.0000 C   0  0  0  0  0  0  0  0  0  0  0  0
    7.5875   -5.3125    0.0000 O   0  0  0  0  0  0  0  0  0  0  0  0
    4.0625   -2.3250    0.0000 O   0  0  0  0  0  0  0  0  0  0  0  0
    2.3167   -5.3625    0.0000 O   0  0  0  0  0  0  0  0  0  0  0  0
    7.5875   -6.3000    0.0000 C   0  0  0  0  0  0  0  0  0  0  0  0
    1.4625   -4.8750    0.0000 C   0  0  0  0  0  0  0  0  0  0  0  0
    3.2250   -1.8500    0.0000 C   0  0  0  0  0  0  0  0  0  0  0  0
    9.1542   -0.2500    0.0000 C   0  0  0  0  0  0  0  0  0  0  0  0
    7.5667   -0.5000    0.0000 C   0  0  0  0  0  0  0  0  0  0  0  0
    8.7042    0.6500    0.0000 O   0  0  0  0  0  0  0  0  0  0  0  0
   10.2042   -3.8500    0.0000 O   0  0  0  0  0  0  0  0  0  0  0  0
    7.7042    0.4750    0.0000 C   0  0  0  0  0  0  0  0  0  0  0  0
    0.5917   -5.3750    0.0000 O   0  0  0  0  0  0  0  0  0  0  0  0
    8.4417   -6.7917    0.0000 O   0  0  0  0  0  0  0  0  0  0  0  0
    3.2125   -0.8750    0.0000 O   0  0  0  0  0  0  0  0  0  0  0  0
    6.7125   -2.6250    0.0000 C   0  0  0  0  0  0  0  0  0  0  0  0
    4.9417   -2.6917    0.0000 C   0  0  0  0  0  0  0  0  0  0  0  0
    7.6042   -1.3000    0.0000 C   0  0  0  0  0  0  0  0  0  0  0  0
    3.1917   -5.9000    0.0000 C   0  0  0  0  0  0  0  0  0  0  0  0
    4.9417   -5.9000    0.0000 C   0  0  0  0  0  0  0  0  0  0  0  0
    6.6625   -6.8625    0.0000 C   0  0  0  0  0  0  0  0  0  0  0  0
    1.4750   -3.7750    0.0000 C   0  0  0  0  0  0  0  0  0  0  0  0
    2.2875   -2.3500    0.0000 C   0  0  0  0  0  0  0  0  0  0  0  0
  2  1  1  0
  3  5  1  0
  4  1  1  0
  5  2  1  0
  6 14  1  0
  7  4  1  0
  8  6  1  0
  9  2  1  0
 10  3  1  0
 11  8  1  0
 12  1  2  0
 13 16  1  0
 14  9  1  0
  7 15  1  0
 16 12  1  0
 17 10  1  0
 18  4  1  0
 19 18  1  0
  9 20  1  6
 10 21  1  6
 11 22  1  6
 23 20  1  0
 24 22  1  0
 25 21  1  0
 26 15  2  0
 27 15  1  0
 28 26  1  0
 29 16  2  0
 30 27  2  0
 31 24  2  0
 32 23  2  0
 33 25  2  0
  2 34  1  1
  3 35  1  1
  4 36  1  6
 37  8  1  0
 38  8  1  0
 39 23  1  0
 40 24  1  0
 41 25  1  0
  7 13  1  6
  5 19  1  0
  3  6  1  0
 30 28  1  0
 11 17  1  0
M  END
>  <ID>  (1626) 


>  <MOLENAME>  (1626) 
DEOXYKHIVORIN

>  <therap>  (1626) 
nan

>  <ref>  (1626) 
nan

>  <cas#>  (1626) 
nan

>  <source>  (1626) 
Meliaceae spp

>  <status>  (1626) 
undetermined activity

>  <tradename>  (1626) 
nan

>  <SMILES>  (1626) 
CC(=O)O[C@H]1C[C@@H](OC(C)=O)C(C)(C)C2C[C@@H](OC(C)=O)[C@@]3(C)C4=CC(=O)O[C@@H](c5cocc5)[C@]4(C)CCC3[C@]21C

>  <standardized_failed>  (1626) 
False

$$$$

     RDKit          2D

 12 13  0  0  0  0  0  0  0  0999 V2000
    2.8292   -4.9417    0.0000 N   0  0  0  0  0  0  0  0  0  0  0  0
    2.8292   -4.1167    0.0000 C   0  0  0  0  0  0  0  0  0  0  0  0
    3.5500   -3.7000    0.0000 C   0  0  0  0  0  0  0  0  0  0  0  0
    4.8167   -3.2792    0.0000 N   0  0  0  0  0  0  0  0  0  0  0  0
    4.3375   -3.9500    0.0000 N   0  0  0  0  0  0  0  0  0  0  0  0
    3.5417   -2.8750    0.0000 C   0  0  0  0  0  0  0  0  0  0  0  0
    2.1125   -5.3542    0.0000 O   0  0  0  0  0  0  0  0  0  0  0  0
    3.5417   -5.3542    0.0000 O   0  0  0  0  0  0  0  0  0  0  0  0
    4.3292   -2.6125    0.0000 C   0  0  0  0  0  0  0  0  0  0  0  0
    2.1167   -3.7042    0.0000 C   0  0  0  0  0  0  0  0  0  0  0  0
    2.8292   -2.4625    0.0000 C   0  0  0  0  0  0  0  0  0  0  0  0
    2.1167   -2.8750    0.0000 C   0  0  0  0  0  0  0  0  0  0  0  0
  2  1  1  0
  3  2  2  0
  4  5  1  0
  5  3  1  0
  6  3  1  0
  7  1  1  0
  8  1  2  0
  9  6  1  0
 10  2  1  0
 11 12  1  0
 12 10  2  0
 11  6  2  0
  9  4  2  0
M  CHG  2   1   1   7  -1
M  END
>  <ID>  (1627) 


>  <MOLENAME>  (1627) 
7-NITROINDAZOLE

>  <therap>  (1627) 
NO synthetase inhibitor

>  <ref>  (1627) 
Eur J Pharmacol 310:115 (1996); TIPS 18:204 (1997)

>  <cas#>  (1627) 
2942-42-9

>  <source>  (1627) 
synthetic

>  <status>  (1627) 
experimental

>  <tradename>  (1627) 
nan

>  <SMILES>  (1627) 
O=[N+]([O-])c1c2[nH]ncc2ccc1

>  <standardized_failed>  (1627) 
False

$$$$

     RDKit          2D

 12 11  0  0  0  0  0  0  0  0999 V2000
    1.9292   -2.1167    0.0000 C   0  0  0  0  0  0  0  0  0  0  0  0
    6.2167   -2.1167    0.0000 C   0  0  0  0  0  0  0  0  0  0  0  0
    1.9292   -1.2917    0.0000 O   0  0  0  0  0  0  0  0  0  0  0  0
    6.2167   -1.2917    0.0000 O   0  0  0  0  0  0  0  0  0  0  0  0
    2.6417   -2.5292    0.0000 N   0  0  0  0  0  0  0  0  0  0  0  0
    5.5000   -2.5292    0.0000 C   0  0  0  0  0  0  0  0  0  0  0  0
    1.2167   -2.5292    0.0000 N   0  0  0  0  0  0  0  0  0  0  0  0
    6.9292   -2.5292    0.0000 O   0  0  0  0  0  0  0  0  0  0  0  0
    5.5000   -3.3542    0.0000 N   0  0  0  0  0  0  0  0  0  0  0  0
    3.3542   -2.1167    0.0000 C   0  0  0  0  0  0  0  0  0  0  0  0
    4.7875   -2.1167    0.0000 C   0  0  0  0  0  0  0  0  0  0  0  0
    4.0667   -2.5292    0.0000 C   0  0  0  0  0  0  0  0  0  0  0  0
  2  6  1  0
  3  1  2  0
  4  2  2  0
  5  1  1  0
  6 11  1  0
  7  1  1  0
  8  2  1  0
  9  6  1  0
 10  5  1  0
 11 12  1  0
 12 10  1  0
M  END
>  <ID>  (1628) 


>  <MOLENAME>  (1628) 
CITRULLINE

>  <therap>  (1628) 
nan

>  <ref>  (1628) 
Tetrahedron 40: 235 (1984)

>  <cas#>  (1628) 
627-77-0

>  <source>  (1628) 
Citrullis vulgaris and the alga Grateloupia filicina

>  <status>  (1628) 
undetermined activity

>  <tradename>  (1628) 
nan

>  <SMILES>  (1628) 
NC(=O)NCCCC(N)C(=O)O

>  <standardized_failed>  (1628) 
False

$$$$

     RDKit          2D

 16 18  0  0  0  0  0  0  0  0999 V2000
    2.9042    0.0208    0.0000 C   0  0  0  0  0  0  0  0  0  0  0  0
    3.5875   -0.2875    0.0000 C   0  0  0  0  0  0  0  0  0  0  0  0
    2.9792    0.7625    0.0000 N   0  0  0  0  0  0  0  0  0  0  0  0
    2.2917   -0.4250    0.0000 C   0  0  0  0  0  0  0  0  0  0  0  0
    4.0917    0.2750    0.0000 N   0  0  0  0  0  0  0  0  0  0  0  0
    3.6667   -1.0375    0.0000 N   0  0  0  0  0  0  0  0  0  0  0  0
    2.3667   -1.1750    0.0000 N   0  0  0  0  0  0  0  0  0  0  0  0
    3.7167    0.9208    0.0000 C   0  0  0  0  0  0  0  0  0  0  0  0
    1.6000   -0.1167    0.0000 N   0  0  0  0  0  0  0  0  0  0  0  0
    3.0542   -1.4792    0.0000 C   0  0  0  0  0  0  0  0  0  0  0  0
    0.8375    0.9458    0.0000 C   0  0  0  0  0  0  0  0  0  0  0  0
    0.1417    0.6375    0.0000 O   0  0  0  0  0  0  0  0  0  0  0  0
    0.7625    1.6875    0.0000 C   0  0  0  0  0  0  0  0  0  0  0  0
   -0.3500    1.2083    0.0000 C   0  0  0  0  0  0  0  0  0  0  0  0
    0.0292    1.8458    0.0000 C   0  0  0  0  0  0  0  0  0  0  0  0
    1.5167    0.6333    0.0000 C   0  0  0  0  0  0  0  0  0  0  0  0
  2  1  2  0
  3  1  1  0
  4  1  1  0
  5  2  1  0
  6  2  1  0
  7  4  2  0
  8  3  2  0
  9  4  1  0
 10  7  1  0
 11 16  1  0
 12 11  1  0
 13 11  2  0
 14 12  1  0
 15 13  1  0
 16  9  1  0
  8  5  1  0
 10  6  2  0
 14 15  2  0
M  END
>  <ID>  (1629) 


>  <MOLENAME>  (1629) 
KINETIN

>  <therap>  (1629) 
auxin, plant growth regulator, plant cell division promotor

>  <ref>  (1629) 
JACS 77: 1392, 2662 (1955); 78: 1375, 3693 (1956); 82: 3971 (1960)

>  <cas#>  (1629) 
525-79-1

>  <source>  (1629) 
yeast

>  <status>  (1629) 
experimental

>  <tradename>  (1629) 
nan

>  <SMILES>  (1629) 
c1coc(CNc2ncnc3c2nc[nH]3)c1

>  <standardized_failed>  (1629) 
False

$$$$

     RDKit          2D

 25 28  0  0  0  0  0  0  0  0999 V2000
    4.0792   -0.4375    0.0000 C   0  0  0  0  0  0  0  0  0  0  0  0
    4.7917   -0.0250    0.0000 C   0  0  0  0  0  0  0  0  0  0  0  0
    2.6500   -0.4375    0.0000 C   0  0  0  0  0  0  0  0  0  0  0  0
    3.3667   -0.0250    0.0000 C   0  0  0  0  0  0  0  0  0  0  0  0
    2.6500   -1.2625    0.0000 C   0  0  0  0  0  0  0  0  0  0  0  0
    4.0792   -1.2625    0.0000 C   0  0  0  0  0  0  0  0  0  0  0  0
    5.5042   -1.2625    0.0000 C   0  0  0  0  0  0  0  0  0  0  0  0
    4.7917   -1.6750    0.0000 O   0  0  0  0  0  0  0  0  0  0  0  0
    1.9375   -1.6750    0.0000 C   0  0  0  0  0  0  0  0  0  0  0  0
    5.5042   -0.4375    0.0000 C   0  0  0  0  0  0  0  0  0  0  0  0
    1.9375   -0.0250    0.0000 C   0  0  0  0  0  0  0  0  0  0  0  0
    3.3667   -1.6750    0.0000 C   0  0  0  0  0  0  0  0  0  0  0  0
    4.7917    0.8083    0.0000 C   0  0  0  0  0  0  0  0  0  0  0  0
    1.2167   -1.2625    0.0000 C   0  0  0  0  0  0  0  0  0  0  0  0
    1.2167   -0.4375    0.0000 C   0  0  0  0  0  0  0  0  0  0  0  0
    3.3667    0.8083    0.0000 C   0  0  0  0  0  0  0  0  0  0  0  0
    6.2292   -1.6792    0.0000 O   0  0  0  0  0  0  0  0  0  0  0  0
    4.0792    1.2208    0.0000 C   0  0  0  0  0  0  0  0  0  0  0  0
    0.5000   -1.6792    0.0000 O   0  0  0  0  0  0  0  0  0  0  0  0
    4.0792    0.3458    0.0000 C   0  0  0  0  0  0  0  0  0  0  0  0
    6.2292   -0.0250    0.0000 O   0  0  0  0  0  0  0  0  0  0  0  0
    2.6750    0.3125    0.0000 C   0  0  0  0  0  0  0  0  0  0  0  0
    2.4292   -2.2792    0.0000 C   0  0  0  0  0  0  0  0  0  0  0  0
    1.4292   -2.2792    0.0000 C   0  0  0  0  0  0  0  0  0  0  0  0
    5.5125    1.2250    0.0000 C   0  0  0  0  0  0  0  0  0  0  0  0
  2  1  1  0
  3  4  1  0
  4  1  1  0
  5 12  1  0
  6  1  1  0
  7  8  1  0
  8  6  1  0
  9  5  1  0
 10  2  1  0
 11  3  1  0
 12  6  1  0
 13  2  2  0
 14  9  1  0
 15 11  2  0
 16  4  1  0
 17  7  2  0
 18 16  1  0
 19 14  2  0
  1 20  1  1
 21 10  1  0
  3 22  1  1
 23  9  1  0
 24  9  1  0
 25 13  1  0
  7 10  1  0
  3  5  1  0
 18 13  1  0
 15 14  1  0
M  END
>  <ID>  (1630) 


>  <MOLENAME>  (1630) 
MEROGEDUNIN

>  <therap>  (1630) 
nan

>  <ref>  (1630) 
J Chem Soc 1966: 506

>  <cas#>  (1630) 
nan

>  <source>  (1630) 
derivative

>  <status>  (1630) 
undetermined activity

>  <tradename>  (1630) 
nan

>  <SMILES>  (1630) 
CC1=C2C(O)C(=O)OC3CC4C(C)(C)C(=O)C=C[C@]4(C)C(CC1)[C@]23C

>  <standardized_failed>  (1630) 
False

$$$$

     RDKit          2D

 43 46  0  0  0  0  0  0  0  0999 V2000
    7.9292   -2.2125    0.0000 C   0  0  0  0  0  0  0  0  0  0  0  0
    3.8292   -3.6042    0.0000 C   0  0  0  0  0  0  0  0  0  0  0  0
    6.9625   -3.2042    0.0000 C   0  0  0  0  0  0  0  0  0  0  0  0
    3.9875   -2.1750    0.0000 C   0  0  0  0  0  0  0  0  0  0  0  0
    6.2750   -4.3667    0.0000 C   0  0  0  0  0  0  0  0  0  0  0  0
    4.8292   -4.5042    0.0000 C   0  0  0  0  0  0  0  0  0  0  0  0
    4.6542   -3.6917    0.0000 N   0  0  0  0  0  0  0  0  0  0  0  0
    6.1917   -3.5375    0.0000 N   0  0  0  0  0  0  0  0  0  0  0  0
    4.1167   -4.9250    0.0000 C   0  0  0  0  0  0  0  0  0  0  0  0
    7.0792   -4.5417    0.0000 C   0  0  0  0  0  0  0  0  0  0  0  0
    5.0667   -1.3875    0.0000 C   0  0  0  0  0  0  0  0  0  0  0  0
    4.8125   -2.1750    0.0000 N   0  0  0  0  0  0  0  0  0  0  0  0
    8.4542   -2.8500    0.0000 N   0  0  0  0  0  0  0  0  0  0  0  0
    9.2292   -2.5542    0.0000 C   0  0  0  0  0  0  0  0  0  0  0  0
    8.3792   -1.5125    0.0000 C   0  0  0  0  0  0  0  0  0  0  0  0
    7.1542   -2.3917    0.0000 C   0  0  0  0  0  0  0  0  0  0  0  0
    3.4917   -2.8500    0.0000 C   0  0  0  0  0  0  0  0  0  0  0  0
    4.4042   -0.9042    0.0000 C   0  0  0  0  0  0  0  0  0  0  0  0
    3.5000   -4.3667    0.0000 C   0  0  0  0  0  0  0  0  0  0  0  0
    7.5000   -3.8292    0.0000 C   0  0  0  0  0  0  0  0  0  0  0  0
    3.7292   -1.3875    0.0000 C   0  0  0  0  0  0  0  0  0  0  0  0
    9.1792   -1.7292    0.0000 C   0  0  0  0  0  0  0  0  0  0  0  0
    5.5917   -4.8542    0.0000 C   0  0  0  0  0  0  0  0  0  0  0  0
    4.0417   -5.7500    0.0000 C   0  0  0  0  0  0  0  0  0  0  0  0
    7.4125   -5.3042    0.0000 C   0  0  0  0  0  0  0  0  0  0  0  0
    8.0792   -0.7375    0.0000 C   0  0  0  0  0  0  0  0  0  0  0  0
    4.4125   -0.0750    0.0000 C   0  0  0  0  0  0  0  0  0  0  0  0
    3.2042   -6.9167    0.0000 C   0  0  0  0  0  0  0  0  0  0  0  0
    7.2500   -6.7375    0.0000 C   0  0  0  0  0  0  0  0  0  0  0  0
    5.8542   -1.1375    0.0000 O   0  0  0  0  0  0  0  0  0  0  0  0
    9.9292   -3.0042    0.0000 O   0  0  0  0  0  0  0  0  0  0  0  0
    2.4417   -7.2542    0.0000 O   0  0  0  0  0  0  0  0  0  0  0  0
    6.7542   -7.4042    0.0000 O   0  0  0  0  0  0  0  0  0  0  0  0
    3.2792   -6.0917    0.0000 C   0  0  0  0  0  0  0  0  0  0  0  0
    6.9167   -5.9750    0.0000 C   0  0  0  0  0  0  0  0  0  0  0  0
    7.2542   -0.6000    0.0000 C   0  0  0  0  0  0  0  0  0  0  0  0
    5.1292    0.3375    0.0000 C   0  0  0  0  0  0  0  0  0  0  0  0
    3.8792   -7.4000    0.0000 O   0  0  0  0  0  0  0  0  0  0  0  0
    8.0667   -6.8292    0.0000 O   0  0  0  0  0  0  0  0  0  0  0  0
    2.9417   -1.1292    0.0000 C   0  0  0  0  0  0  0  0  0  0  0  0
    2.6875   -4.5500    0.0000 C   0  0  0  0  0  0  0  0  0  0  0  0
    8.3250   -3.7542    0.0000 C   0  0  0  0  0  0  0  0  0  0  0  0
    9.8250   -1.2042    0.0000 C   0  0  0  0  0  0  0  0  0  0  0  0
  2  7  1  0
  3 16  1  0
  4 17  2  0
  5  8  1  0
  6 23  1  0
  7  6  1  0
  8  3  1  0
  9  6  2  0
 10 20  1  0
 11 12  1  0
 12  4  1  0
 13  1  1  0
 14 13  1  0
 15  1  1  0
 16  1  2  0
 17  2  1  0
 18 21  2  0
 19  9  1  0
 20  3  2  0
 21  4  1  0
 22 15  2  0
 23  5  1  0
 24  9  1  0
 25 10  1  0
 26 15  1  0
 27 18  1  0
 28 34  1  0
 29 35  1  0
 30 11  2  0
 31 14  2  0
 32 28  2  0
 33 29  2  0
 34 24  1  0
 35 25  1  0
 36 26  2  0
 37 27  2  0
 38 28  1  0
 39 29  1  0
 40 21  1  0
 41 19  1  0
 42 20  1  0
 43 22  1  0
 14 22  1  0
 10  5  2  0
 19  2  2  0
 18 11  1  0
M  END
>  <ID>  (1631) 


>  <MOLENAME>  (1631) 
BILIRUBIN

>  <therap>  (1631) 
nan

>  <ref>  (1631) 
nan

>  <cas#>  (1631) 
635-65-4

>  <source>  (1631) 
pigment mamalian gallstones, blood and urine

>  <status>  (1631) 
undetermined activity

>  <tradename>  (1631) 
nan

>  <SMILES>  (1631) 
C=CC1=C(C)/C(=C/c2c(C)c(CCC(=O)O)c(Cc3c(CCC(=O)O)c(C)c(/C=C4\NC(=O)C(C)=C4C=C)[nH]3)[nH]2)NC1=O

>  <standardized_failed>  (1631) 
False

$$$$

     RDKit          2D

 25 28  0  0  0  0  0  0  0  0999 V2000
    4.3417   -2.5750    0.0000 C   0  0  0  0  0  0  0  0  0  0  0  0
    3.6292   -2.1667    0.0000 C   0  0  0  0  0  0  0  0  0  0  0  0
    2.9125   -2.5667    0.0000 C   0  0  0  0  0  0  0  0  0  0  0  0
    4.3292   -3.3917    0.0000 C   0  0  0  0  0  0  0  0  0  0  0  0
    2.9042   -3.3917    0.0000 C   0  0  0  0  0  0  0  0  0  0  0  0
    5.0500   -2.1542    0.0000 C   0  0  0  0  0  0  0  0  0  0  0  0
    3.6167   -3.8042    0.0000 C   0  0  0  0  0  0  0  0  0  0  0  0
    5.0417   -3.8042    0.0000 N   0  0  0  0  0  0  0  0  0  0  0  0
    3.6292   -1.3542    0.0000 C   0  0  0  0  0  0  0  0  0  0  0  0
    2.1917   -2.1417    0.0000 C   0  0  0  0  0  0  0  0  0  0  0  0
    4.3375   -0.9375    0.0000 C   0  0  0  0  0  0  0  0  0  0  0  0
    5.0417   -1.3417    0.0000 C   0  0  0  0  0  0  0  0  0  0  0  0
    1.4917   -2.5667    0.0000 C   0  0  0  0  0  0  0  0  0  0  0  0
    5.7625   -2.5792    0.0000 C   0  0  0  0  0  0  0  0  0  0  0  0
    2.1917   -3.7917    0.0000 C   0  0  0  0  0  0  0  0  0  0  0  0
    5.7542   -3.4000    0.0000 C   0  0  0  0  0  0  0  0  0  0  0  0
    1.4917   -3.3917    0.0000 C   0  0  0  0  0  0  0  0  0  0  0  0
    2.1917   -1.3167    0.0000 O   0  0  0  0  0  0  0  0  0  0  0  0
    2.9125   -0.9417    0.0000 O   0  0  0  0  0  0  0  0  0  0  0  0
    4.3292   -0.1125    0.0000 O   0  0  0  0  0  0  0  0  0  0  0  0
    0.7750   -2.1542    0.0000 O   0  0  0  0  0  0  0  0  0  0  0  0
    5.0375   -4.6292    0.0000 C   0  0  0  0  0  0  0  0  0  0  0  0
    2.9125   -0.1167    0.0000 C   0  0  0  0  0  0  0  0  0  0  0  0
    5.0417    0.3000    0.0000 C   0  0  0  0  0  0  0  0  0  0  0  0
    0.7667   -1.3292    0.0000 C   0  0  0  0  0  0  0  0  0  0  0  0
  2  1  2  0
  3  2  1  0
  4  1  1  0
  5  7  1  0
  6  1  1  0
  4  7  1  1
  8  4  1  0
  9  2  1  0
 10  3  2  0
 11 12  1  0
 12  6  2  0
 13 10  1  0
 14  6  1  0
 15  5  2  0
 16 14  1  0
 17 15  1  0
 18 10  1  0
 19  9  1  0
 20 11  1  0
 21 13  1  0
 22  8  1  0
 23 19  1  0
 24 20  1  0
 25 21  1  0
 16  8  1  0
 11  9  2  0
  5  3  1  0
 17 13  2  0
M  END
>  <ID>  (1632) 


>  <MOLENAME>  (1632) 
S-ISOCORYDINE (+)

>  <therap>  (1632) 
sedative, cholinergic

>  <ref>  (1632) 
J Org Chem 19:1774 (1954); Aust J Chem 20: 1277 (1967)

>  <cas#>  (1632) 
475-67-2

>  <source>  (1632) 
Dicentra canadensis, Artabotyris suaveoleus and Cordyalis species

>  <status>  (1632) 
experimental

>  <tradename>  (1632) 
nan

>  <SMILES>  (1632) 
COc1ccc2C[C@H]3c4c(c(OC)c(OC)cc4CCN3C)-c2c1O

>  <standardized_failed>  (1632) 
False

$$$$

     RDKit          2D

 16 17  0  0  0  0  0  0  0  0999 V2000
    2.7792   -2.3542    0.0000 C   0  0  0  0  0  0  0  0  0  0  0  0
    2.0667   -2.7625    0.0000 C   0  0  0  0  0  0  0  0  0  0  0  0
    2.7875   -1.5292    0.0000 C   0  0  0  0  0  0  0  0  0  0  0  0
    1.3667   -2.3542    0.0000 C   0  0  0  0  0  0  0  0  0  0  0  0
    1.3667   -1.5292    0.0000 C   0  0  0  0  0  0  0  0  0  0  0  0
    2.0667   -1.1125    0.0000 C   0  0  0  0  0  0  0  0  0  0  0  0
    3.4917   -2.7667    0.0000 C   0  0  0  0  0  0  0  0  0  0  0  0
    3.5000   -1.1167    0.0000 C   0  0  0  0  0  0  0  0  0  0  0  0
    4.2125   -1.5292    0.0000 C   0  0  0  0  0  0  0  0  0  0  0  0
    4.2125   -2.3542    0.0000 C   0  0  0  0  0  0  0  0  0  0  0  0
    0.6500   -1.1167    0.0000 O   0  0  0  0  0  0  0  0  0  0  0  0
    3.4875   -3.5917    0.0000 C   0  0  0  0  0  0  0  0  0  0  0  0
    0.6500   -2.7667    0.0000 C   0  0  0  0  0  0  0  0  0  0  0  0
    3.5042   -0.2917    0.0000 C   0  0  0  0  0  0  0  0  0  0  0  0
    2.7667   -4.0000    0.0000 C   0  0  0  0  0  0  0  0  0  0  0  0
    4.2000   -4.0042    0.0000 C   0  0  0  0  0  0  0  0  0  0  0  0
  2  1  1  0
  3  1  1  0
  4  2  2  0
  5  6  1  0
  6  3  1  0
  7  1  1  0
  8  3  1  0
  9 10  1  0
 10  7  1  0
 11  5  2  0
 12  7  1  0
 13  4  1  0
 14  8  1  0
 15 12  1  0
 16 12  1  0
  8  9  2  0
  4  5  1  0
M  END
>  <ID>  (1633) 


>  <MOLENAME>  (1633) 
MUUROLLADIE-3-ONE

>  <therap>  (1633) 
nan

>  <ref>  (1633) 
Coll Czech Chem Comm 31: 3373 (1966)

>  <cas#>  (1633) 
nan

>  <source>  (1633) 
derivative of muurolene

>  <status>  (1633) 
undetermined activity

>  <tradename>  (1633) 
nan

>  <SMILES>  (1633) 
CC1=CC2C(CC1=O)C(C)=CCC2C(C)C

>  <standardized_failed>  (1633) 
False

$$$$

     RDKit          2D

 30 33  0  0  0  0  0  0  0  0999 V2000
    6.2875   -2.0125    0.0000 C   0  0  0  0  0  0  0  0  0  0  0  0
    4.8875   -2.8292    0.0000 C   0  0  0  0  0  0  0  0  0  0  0  0
    4.1917   -3.2417    0.0000 C   0  0  0  0  0  0  0  0  0  0  0  0
    6.2917   -2.8250    0.0000 C   0  0  0  0  0  0  0  0  0  0  0  0
    5.5917   -3.2292    0.0000 C   0  0  0  0  0  0  0  0  0  0  0  0
    5.5792   -1.6125    0.0000 C   0  0  0  0  0  0  0  0  0  0  0  0
    4.1917   -4.0542    0.0000 C   0  0  0  0  0  0  0  0  0  0  0  0
    4.8792   -2.0167    0.0000 C   0  0  0  0  0  0  0  0  0  0  0  0
    5.6000   -4.0417    0.0000 C   0  0  0  0  0  0  0  0  0  0  0  0
    6.9875   -1.6042    0.0000 C   0  0  0  0  0  0  0  0  0  0  0  0
    4.8917   -4.4542    0.0000 C   0  0  0  0  0  0  0  0  0  0  0  0
    7.6792   -2.8292    0.0000 C   0  0  0  0  0  0  0  0  0  0  0  0
    3.4792   -2.8417    0.0000 C   0  0  0  0  0  0  0  0  0  0  0  0
    7.6917   -2.0042    0.0000 C   0  0  0  0  0  0  0  0  0  0  0  0
    9.1667   -0.3167    0.0000 C   0  0  0  0  0  0  0  0  0  0  0  0
    3.4917   -4.4667    0.0000 C   0  0  0  0  0  0  0  0  0  0  0  0
    9.1542    0.5250    0.0000 O   0  0  0  0  0  0  0  0  0  0  0  0
    6.9792   -0.7625    0.0000 C   0  0  0  0  0  0  0  0  0  0  0  0
    7.7042   -0.3292    0.0000 C   0  0  0  0  0  0  0  0  0  0  0  0
    5.5792   -0.7875    0.0000 O   0  0  0  0  0  0  0  0  0  0  0  0
    6.3167   -4.4542    0.0000 O   0  0  0  0  0  0  0  0  0  0  0  0
    8.4375   -0.7417    0.0000 C   0  0  0  0  0  0  0  0  0  0  0  0
    6.2792   -1.1667    0.0000 C   0  0  0  0  0  0  0  0  0  0  0  0
    2.7792   -3.2500    0.0000 C   0  0  0  0  0  0  0  0  0  0  0  0
    2.7667   -4.1167    0.0000 C   0  0  0  0  0  0  0  0  0  0  0  0
    4.1792   -2.4000    0.0000 C   0  0  0  0  0  0  0  0  0  0  0  0
    9.8917   -0.7292    0.0000 O   0  0  0  0  0  0  0  0  0  0  0  0
    2.1750   -4.5292    0.0000 O   0  0  0  0  0  0  0  0  0  0  0  0
    6.2417   -0.3417    0.0000 C   0  0  0  0  0  0  0  0  0  0  0  0
    9.9042   -1.5542    0.0000 C   0  0  0  0  0  0  0  0  0  0  0  0
  2  8  1  0
  3  2  1  0
  4  1  1  0
  5  4  1  0
  6  1  1  0
  7  3  1  0
  8  6  1  0
  9  5  1  0
 10  1  1  0
 11  9  1  0
 12  4  1  0
 13  3  1  0
 14 10  1  0
 15 22  1  0
  7 16  1  6
 17 15  2  0
 10 18  1  1
 19 18  1  0
  6 20  1  6
  9 21  1  6
 22 19  1  0
  1 23  1  1
 24 13  1  0
 25 24  1  0
  3 26  1  1
 27 15  1  0
 25 28  1  6
 29 18  1  0
 30 27  1  0
 12 14  1  0
  5  2  1  0
  7 11  1  0
 25 16  1  0
M  END
>  <ID>  (1634) 


>  <MOLENAME>  (1634) 
CHOLIC ACID. METHYL ESTER

>  <therap>  (1634) 
nan

>  <ref>  (1634) 
nan

>  <cas#>  (1634) 
1448-36-8

>  <source>  (1634) 
acid as primary bile constituent

>  <status>  (1634) 
undetermined activity

>  <tradename>  (1634) 
nan

>  <SMILES>  (1634) 
COC(=O)CCC(C)[C@H]1CCC2C3C(C[C@H](O)[C@@]21C)[C@@]1(C)CC[C@@H](O)C[C@H]1C[C@H]3O

>  <standardized_failed>  (1634) 
False

$$$$

     RDKit          2D

 27 30  0  0  0  0  0  0  0  0999 V2000
    3.1375    0.4833    0.0000 C   0  0  0  0  0  0  0  0  0  0  0  0
    1.0417   -0.7417    0.0000 C   0  0  0  0  0  0  0  0  0  0  0  0
    3.1417   -0.3292    0.0000 C   0  0  0  0  0  0  0  0  0  0  0  0
    1.7375   -0.3375    0.0000 C   0  0  0  0  0  0  0  0  0  0  0  0
    2.4417   -0.7375    0.0000 C   0  0  0  0  0  0  0  0  0  0  0  0
    3.8375    0.8958    0.0000 C   0  0  0  0  0  0  0  0  0  0  0  0
    1.0417   -1.5542    0.0000 C   0  0  0  0  0  0  0  0  0  0  0  0
    2.4292    0.8833    0.0000 C   0  0  0  0  0  0  0  0  0  0  0  0
    1.7292    0.4750    0.0000 C   0  0  0  0  0  0  0  0  0  0  0  0
    4.5292   -0.3292    0.0000 C   0  0  0  0  0  0  0  0  0  0  0  0
    0.3292   -0.3417    0.0000 C   0  0  0  0  0  0  0  0  0  0  0  0
    4.5417    0.4958    0.0000 C   0  0  0  0  0  0  0  0  0  0  0  0
    2.4417   -1.5500    0.0000 C   0  0  0  0  0  0  0  0  0  0  0  0
    6.0167    2.1750    0.0000 C   0  0  0  0  0  0  0  0  0  0  0  0
    1.7417   -1.9625    0.0000 C   0  0  0  0  0  0  0  0  0  0  0  0
    0.3417   -1.9667    0.0000 C   0  0  0  0  0  0  0  0  0  0  0  0
    6.0042    3.0208    0.0000 O   0  0  0  0  0  0  0  0  0  0  0  0
    3.8292    1.7333    0.0000 C   0  0  0  0  0  0  0  0  0  0  0  0
    4.5542    2.1625    0.0000 C   0  0  0  0  0  0  0  0  0  0  0  0
    5.2875    1.7500    0.0000 C   0  0  0  0  0  0  0  0  0  0  0  0
    3.1292    1.3250    0.0000 C   0  0  0  0  0  0  0  0  0  0  0  0
   -0.3708   -0.7542    0.0000 C   0  0  0  0  0  0  0  0  0  0  0  0
   -0.3625   -1.5667    0.0000 C   0  0  0  0  0  0  0  0  0  0  0  0
    1.0292    0.0958    0.0000 C   0  0  0  0  0  0  0  0  0  0  0  0
    6.7417    1.7625    0.0000 O   0  0  0  0  0  0  0  0  0  0  0  0
   -1.0833   -1.9792    0.0000 O   0  0  0  0  0  0  0  0  0  0  0  0
    3.0917    2.1500    0.0000 C   0  0  0  0  0  0  0  0  0  0  0  0
  2  4  1  0
  3  1  1  0
  4  9  1  0
  5  3  1  0
  6  1  1  0
  7  2  1  0
  8  1  1  0
  9  8  1  0
 10  3  1  0
 11  2  1  0
 12  6  1  0
 13  5  1  0
 14 20  1  0
 15 13  1  0
  7 16  1  6
 17 14  2  0
  6 18  1  1
 19 18  1  0
 20 19  1  0
  1 21  1  1
 22 11  1  0
 23 22  1  0
  2 24  1  1
 25 14  1  0
 23 26  1  6
 27 18  1  0
 10 12  1  0
  5  4  1  0
  7 15  1  0
 23 16  1  0
M  END
>  <ID>  (1635) 


>  <MOLENAME>  (1635) 
LITHOCHOLIC ACID

>  <therap>  (1635) 
LD50(mouse) 3900 mg/kg po

>  <ref>  (1635) 
JACS 71:4126 (1949)

>  <cas#>  (1635) 
434-13-9

>  <source>  (1635) 
mammalian bile and gallstones, faecal matter  

>  <status>  (1635) 
experimental

>  <tradename>  (1635) 
nan

>  <SMILES>  (1635) 
CC(CCC(=O)O)[C@H]1CCC2C3CC[C@@H]4C[C@H](O)CC[C@]4(C)C3CC[C@@]21C

>  <standardized_failed>  (1635) 
False

$$$$

     RDKit          2D

 55 62  0  0  0  0  0  0  0  0999 V2000
    8.7417   -3.1250    0.0000 C   0  0  0  0  0  0  0  0  0  0  0  0
    8.7417   -2.3167    0.0000 C   0  0  0  0  0  0  0  0  0  0  0  0
    6.6542   -3.5375    0.0000 C   0  0  0  0  0  0  0  0  0  0  0  0
    9.8542   -1.1792    0.0000 C   0  0  0  0  0  0  0  0  0  0  0  0
    8.0500   -3.5292    0.0000 C   0  0  0  0  0  0  0  0  0  0  0  0
    9.4375   -1.9042    0.0000 C   0  0  0  0  0  0  0  0  0  0  0  0
   10.1292   -3.1292    0.0000 C   0  0  0  0  0  0  0  0  0  0  0  0
    7.3500   -3.1292    0.0000 C   0  0  0  0  0  0  0  0  0  0  0  0
   -0.5708   -5.3042    0.0000 C   0  0  0  0  0  0  0  0  0  0  0  0
    1.9667   -4.5500    0.0000 C   0  0  0  0  0  0  0  0  0  0  0  0
   10.1417   -2.3042    0.0000 C   0  0  0  0  0  0  0  0  0  0  0  0
    1.0875   -5.3292    0.0000 C   0  0  0  0  0  0  0  0  0  0  0  0
   -1.5208   -6.0875    0.0000 C   0  0  0  0  0  0  0  0  0  0  0  0
    3.6167   -4.5667    0.0000 C   0  0  0  0  0  0  0  0  0  0  0  0
    0.6792   -4.6042    0.0000 O   0  0  0  0  0  0  0  0  0  0  0  0
    3.2125   -3.8417    0.0000 O   0  0  0  0  0  0  0  0  0  0  0  0
   -1.9250   -5.3625    0.0000 O   0  0  0  0  0  0  0  0  0  0  0  0
    9.5042   -0.4167    0.0000 C   0  0  0  0  0  0  0  0  0  0  0  0
    0.6667   -6.0375    0.0000 C   0  0  0  0  0  0  0  0  0  0  0  0
   -1.9333   -6.8000    0.0000 C   0  0  0  0  0  0  0  0  0  0  0  0
    3.2042   -5.2750    0.0000 C   0  0  0  0  0  0  0  0  0  0  0  0
    6.6542   -4.3417    0.0000 C   0  0  0  0  0  0  0  0  0  0  0  0
    2.3792   -5.2667    0.0000 C   0  0  0  0  0  0  0  0  0  0  0  0
   -0.1583   -6.0292    0.0000 C   0  0  0  0  0  0  0  0  0  0  0  0
   -3.1750   -6.0667    0.0000 C   0  0  0  0  0  0  0  0  0  0  0  0
    8.0417   -1.9167    0.0000 C   0  0  0  0  0  0  0  0  0  0  0  0
    2.3917   -3.8417    0.0000 C   0  0  0  0  0  0  0  0  0  0  0  0
   -0.1458   -4.5917    0.0000 C   0  0  0  0  0  0  0  0  0  0  0  0
   -2.7708   -6.7917    0.0000 C   0  0  0  0  0  0  0  0  0  0  0  0
   10.1167    0.1458    0.0000 C   0  0  0  0  0  0  0  0  0  0  0  0
   -2.7500   -5.3542    0.0000 C   0  0  0  0  0  0  0  0  0  0  0  0
    1.3000   -4.5292    0.0000 O   0  0  0  0  0  0  0  0  0  0  0  0
   -1.3083   -5.2875    0.0000 O   0  0  0  0  0  0  0  0  0  0  0  0
    7.3417   -2.3250    0.0000 C   0  0  0  0  0  0  0  0  0  0  0  0
   10.8417   -0.2625    0.0000 O   0  0  0  0  0  0  0  0  0  0  0  0
    5.9542   -3.1417    0.0000 C   0  0  0  0  0  0  0  0  0  0  0  0
    8.0542   -4.3375    0.0000 C   0  0  0  0  0  0  0  0  0  0  0  0
   10.6792   -1.0792    0.0000 C   0  0  0  0  0  0  0  0  0  0  0  0
    4.4417   -4.5667    0.0000 O   0  0  0  0  0  0  0  0  0  0  0  0
    5.9625   -4.7542    0.0000 C   0  0  0  0  0  0  0  0  0  0  0  0
    7.3542   -4.7500    0.0000 C   0  0  0  0  0  0  0  0  0  0  0  0
    8.9625   -3.9292    0.0000 O   0  0  0  0  0  0  0  0  0  0  0  0
   10.0167    0.9833    0.0000 O   0  0  0  0  0  0  0  0  0  0  0  0
    5.2542   -4.3542    0.0000 C   0  0  0  0  0  0  0  0  0  0  0  0
    8.7375   -1.4792    0.0000 C   0  0  0  0  0  0  0  0  0  0  0  0
   10.9500   -2.0875    0.0000 O   0  0  0  0  0  0  0  0  0  0  0  0
    5.2542   -3.5417    0.0000 C   0  0  0  0  0  0  0  0  0  0  0  0
   -3.8958   -6.4750    0.0000 O   0  0  0  0  0  0  0  0  0  0  0  0
    1.9625   -5.9792    0.0000 O   0  0  0  0  0  0  0  0  0  0  0  0
   -0.5750   -6.7417    0.0000 O   0  0  0  0  0  0  0  0  0  0  0  0
   -3.1833   -7.5042    0.0000 O   0  0  0  0  0  0  0  0  0  0  0  0
    6.6500   -2.7000    0.0000 C   0  0  0  0  0  0  0  0  0  0  0  0
   -0.3583   -3.7917    0.0000 C   0  0  0  0  0  0  0  0  0  0  0  0
    2.1750   -3.0417    0.0000 C   0  0  0  0  0  0  0  0  0  0  0  0
   -2.9708   -4.5542    0.0000 C   0  0  0  0  0  0  0  0  0  0  0  0
  2  1  1  0
  3  8  1  0
  6  4  1  1
  5  1  1  0
  6  2  1  0
  7  1  1  0
  8  5  1  0
  9 24  1  0
 10 23  1  0
 11  7  1  0
 12 32  1  0
 13 33  1  0
 14 39  1  1
 15 12  1  0
 16 14  1  0
 17 13  1  0
 18  4  2  0
 19 12  1  0
 20 13  1  0
 21 14  1  0
 22 41  1  6
 23 21  1  0
 24 19  1  0
 25 29  1  0
 26  2  1  0
 27 16  1  0
 28 15  1  0
 29 20  1  0
 30 18  1  0
 31 17  1  0
 10 32  1  6
  9 33  1  6
 34  8  1  0
 35 38  1  0
 36  3  1  0
  5 37  1  6
 38  4  1  0
 44 39  1  1
 40 22  1  0
 41 37  1  0
  1 42  1  1
 43 30  2  0
 44 40  1  0
  2 45  1  1
 11 46  1  1
 47 36  1  0
 48 25  1  0
 23 49  1  6
 24 50  1  6
 29 51  1  6
  3 52  1  1
 28 53  1  1
 27 54  1  1
 31 55  1  1
  6 11  1  0
 34 26  1  0
  3 22  1  0
 44 47  1  0
 30 35  1  0
 10 27  1  0
  9 28  1  0
 25 31  1  0
M  END
>  <ID>  (1636) 


>  <MOLENAME>  (1636) 
GITOXIN

>  <therap>  (1636) 
cardiotonic

>  <ref>  (1636) 
Chem Pharm Bull 18: 1080 (1970); Mol Pharmacol 11:653 (1975)

>  <cas#>  (1636) 
4562-36-1

>  <source>  (1636) 
Digitalis spp.

>  <status>  (1636) 
experimental

>  <tradename>  (1636) 
nan

>  <SMILES>  (1636) 
C[C@H]1OC(O[C@H]2[C@@H](O)CC(O[C@H]3[C@@H](O)C[C@H](O[C@H]4CC[C@]5(C)C6CC[C@]7(C)[C@@H](C8=CC(=O)OC8)[C@@H](O)C[C@]7(O)[C@@H]6CC[C@@H]5C4)O[C@@H]3C)O[C@@H]2C)C[C@H](O)C1O

>  <standardized_failed>  (1636) 
False

$$$$

     RDKit          2D

 23 24  0  0  0  0  0  0  0  0999 V2000
    0.2875   -5.1542    0.0000 C   0  0  0  0  0  0  0  0  0  0  0  0
    1.7042   -4.3292    0.0000 C   0  0  0  0  0  0  0  0  0  0  0  0
    0.2875   -5.9792    0.0000 C   0  0  0  0  0  0  0  0  0  0  0  0
    2.4250   -4.7417    0.0000 C   0  0  0  0  0  0  0  0  0  0  0  0
    3.1500   -4.3292    0.0000 C   0  0  0  0  0  0  0  0  0  0  0  0
   -0.4333   -6.3917    0.0000 C   0  0  0  0  0  0  0  0  0  0  0  0
   -0.4333   -4.7417    0.0000 O   0  0  0  0  0  0  0  0  0  0  0  0
    0.9917   -4.7417    0.0000 O   0  0  0  0  0  0  0  0  0  0  0  0
    2.4250   -3.0917    0.0000 O   0  0  0  0  0  0  0  0  0  0  0  0
    3.1500   -3.5042    0.0000 C   0  0  0  0  0  0  0  0  0  0  0  0
   -1.1458   -5.9792    0.0000 C   0  0  0  0  0  0  0  0  0  0  0  0
    1.7042   -3.5042    0.0000 C   0  0  0  0  0  0  0  0  0  0  0  0
   -1.1458   -5.1542    0.0000 C   0  0  0  0  0  0  0  0  0  0  0  0
    0.9917   -6.3917    0.0000 O   0  0  0  0  0  0  0  0  0  0  0  0
    3.8625   -4.7417    0.0000 O   0  0  0  0  0  0  0  0  0  0  0  0
    2.4292   -5.5750    0.0000 O   0  0  0  0  0  0  0  0  0  0  0  0
   -0.4333   -7.2167    0.0000 O   0  0  0  0  0  0  0  0  0  0  0  0
   -1.8583   -6.3875    0.0000 O   0  0  0  0  0  0  0  0  0  0  0  0
    3.8625   -3.0917    0.0000 O   0  0  0  0  0  0  0  0  0  0  0  0
    0.9917   -3.0917    0.0000 C   0  0  0  0  0  0  0  0  0  0  0  0
   -1.8500   -4.7417    0.0000 C   0  0  0  0  0  0  0  0  0  0  0  0
    0.3625   -3.6250    0.0000 O   0  0  0  0  0  0  0  0  0  0  0  0
   -2.4833   -5.2750    0.0000 O   0  0  0  0  0  0  0  0  0  0  0  0
  2  8  1  6
  3  1  1  0
  4  2  1  0
  5  4  1  0
  6  3  1  0
  7  1  1  0
  1  8  1  1
  9 12  1  0
 10  9  1  0
 11 13  1  0
 12  2  1  0
 13  7  1  0
  3 14  1  6
  5 15  1  6
  4 16  1  1
  6 17  1  1
 11 18  1  6
 10 19  1  6
 12 20  1  1
 13 21  1  1
 22 20  1  0
 23 21  1  0
  6 11  1  0
 10  5  1  0
M  END
>  <ID>  (1637) 


>  <MOLENAME>  (1637) 
CELLOBIOSE (D[+])

>  <therap>  (1637) 
nan

>  <ref>  (1637) 
J Am Chem Soc 75: 1916 (1953)

>  <cas#>  (1637) 
528-50-7

>  <source>  (1637) 
enzymatic hydrolysis of cellulose

>  <status>  (1637) 
undetermined activity

>  <tradename>  (1637) 
nan

>  <SMILES>  (1637) 
OC[C@H]1O[C@@H](O[C@@H]2[C@@H](CO)O[C@H](O)[C@H](O)[C@H]2O)[C@H](O)[C@@H](O)[C@@H]1O

>  <standardized_failed>  (1637) 
False

$$$$

     RDKit          2D

 17 17  0  0  0  0  0  0  0  0999 V2000
    8.0125   -4.5500    0.0000 C   0  0  0  0  0  0  0  0  0  0  0  0
    7.3625   -4.9250    0.0000 C   0  0  0  0  0  0  0  0  0  0  0  0
    8.0125   -3.8000    0.0000 C   0  0  0  0  0  0  0  0  0  0  0  0
    4.7542   -3.4250    0.0000 C   0  0  0  0  0  0  0  0  0  0  0  0
    5.4125   -3.8000    0.0000 C   0  0  0  0  0  0  0  0  0  0  0  0
    6.0625   -3.4250    0.0000 C   0  0  0  0  0  0  0  0  0  0  0  0
    6.7125   -3.8000    0.0000 C   0  0  0  0  0  0  0  0  0  0  0  0
    7.3625   -3.4250    0.0000 C   0  0  0  0  0  0  0  0  0  0  0  0
    6.7125   -4.5500    0.0000 C   0  0  0  0  0  0  0  0  0  0  0  0
    4.7542   -2.6667    0.0000 O   0  0  0  0  0  0  0  0  0  0  0  0
    8.6542   -4.9250    0.0000 O   0  0  0  0  0  0  0  0  0  0  0  0
    8.6542   -3.4167    0.0000 O   0  0  0  0  0  0  0  0  0  0  0  0
    7.3625   -5.6750    0.0000 O   0  0  0  0  0  0  0  0  0  0  0  0
    4.1000   -3.8000    0.0000 O   0  0  0  0  0  0  0  0  0  0  0  0
    9.3042   -4.5500    0.0000 C   0  0  0  0  0  0  0  0  0  0  0  0
    9.3042   -3.7917    0.0000 C   0  0  0  0  0  0  0  0  0  0  0  0
    6.7125   -6.0500    0.0000 C   0  0  0  0  0  0  0  0  0  0  0  0
  2  1  2  0
  3  1  1  0
  4  5  1  0
  5  6  2  0
  6  7  1  0
  7  8  1  0
  8  3  2  0
  9  2  1  0
 10  4  2  0
 11  1  1  0
 12  3  1  0
 13  2  1  0
 14  4  1  0
 15 11  1  0
 16 12  1  0
 17 13  1  0
  9  7  2  0
M  END
>  <ID>  (1638) 


>  <MOLENAME>  (1638) 
SINAPIC ACID METHYL ETHER

>  <therap>  (1638) 
nan

>  <ref>  (1638) 
Indian J Chem B 15: 583 (1977); Phytochemistry 19: 651 (1980); Chem Pharm Bull 32: 3267 (1984)

>  <cas#>  (1638) 
90-50-6

>  <source>  (1638) 
common plant constituent

>  <status>  (1638) 
undetermined activity

>  <tradename>  (1638) 
nan

>  <SMILES>  (1638) 
COc1cc(/C=C/C(=O)O)cc(OC)c1OC

>  <standardized_failed>  (1638) 
False

$$$$

     RDKit          2D

 19 19  0  0  0  0  0  0  0  0999 V2000
    3.2875   -2.4917    0.0000 C   0  0  0  0  0  0  0  0  0  0  0  0
    3.2875   -3.3167    0.0000 C   0  0  0  0  0  0  0  0  0  0  0  0
    2.5750   -2.0792    0.0000 C   0  0  0  0  0  0  0  0  0  0  0  0
    4.0000   -2.0875    0.0000 C   0  0  0  0  0  0  0  0  0  0  0  0
    2.5750   -3.7292    0.0000 C   0  0  0  0  0  0  0  0  0  0  0  0
    1.8667   -3.3167    0.0000 C   0  0  0  0  0  0  0  0  0  0  0  0
    4.7125   -2.5000    0.0000 C   0  0  0  0  0  0  0  0  0  0  0  0
    6.1375   -2.5042    0.0000 C   0  0  0  0  0  0  0  0  0  0  0  0
    6.1292   -3.3292    0.0000 C   0  0  0  0  0  0  0  0  0  0  0  0
    1.8667   -2.4917    0.0000 C   0  0  0  0  0  0  0  0  0  0  0  0
    5.4250   -2.0917    0.0000 C   0  0  0  0  0  0  0  0  0  0  0  0
    1.1500   -3.7292    0.0000 O   0  0  0  0  0  0  0  0  0  0  0  0
    5.4167   -3.7375    0.0000 O   0  0  0  0  0  0  0  0  0  0  0  0
    3.2792   -1.6667    0.0000 O   0  0  0  0  0  0  0  0  0  0  0  0
    6.8417   -3.7417    0.0000 O   0  0  0  0  0  0  0  0  0  0  0  0
    4.0042   -3.7292    0.0000 C   0  0  0  0  0  0  0  0  0  0  0  0
    2.1542   -1.3625    0.0000 C   0  0  0  0  0  0  0  0  0  0  0  0
    2.7875   -1.2792    0.0000 C   0  0  0  0  0  0  0  0  0  0  0  0
    5.4250   -1.2667    0.0000 C   0  0  0  0  0  0  0  0  0  0  0  0
  2  1  1  0
  3  1  1  0
  4  1  1  0
  5  2  2  0
  6 10  1  0
  7  4  2  0
  8 11  2  0
  9  8  1  0
 10  3  1  0
 11  7  1  0
 12  6  2  0
 13  9  2  0
 14  1  1  0
 15  9  1  0
 16  2  1  0
 17  3  1  0
 18  3  1  0
 19 11  1  0
  6  5  1  0
M  END
>  <ID>  (1639) 


>  <MOLENAME>  (1639) 
ABSCISIC ACID (cis.trans; +/-)

>  <therap>  (1639) 
abscission-accelerant; kinetin neucleotide synthesis inhibitor

>  <ref>  (1639) 
Nature 210:627 (1966); 211:742 (1966); Ann Revi Plant Biol 6:165 (2005) 

>  <cas#>  (1639) 
14375-45-2

>  <source>  (1639) 
cotton bolls & synthetic

>  <status>  (1639) 
agricultural use

>  <tradename>  (1639) 
ABA

>  <SMILES>  (1639) 
CC1=CC(=O)CC(C)(C)C1(O)/C=C/C(C)=C\C(=O)O

>  <standardized_failed>  (1639) 
False

$$$$

     RDKit          2D

 30 33  0  0  0  0  0  0  0  0999 V2000
    5.1542   -3.6792    0.0000 C   0  0  0  0  0  0  0  0  0  0  0  0
    3.0042   -4.9042    0.0000 C   0  0  0  0  0  0  0  0  0  0  0  0
    5.1417   -4.5042    0.0000 C   0  0  0  0  0  0  0  0  0  0  0  0
    3.7167   -4.4917    0.0000 C   0  0  0  0  0  0  0  0  0  0  0  0
    4.4250   -4.9125    0.0000 C   0  0  0  0  0  0  0  0  0  0  0  0
    5.9375   -3.4375    0.0000 C   0  0  0  0  0  0  0  0  0  0  0  0
    3.0000   -5.7292    0.0000 C   0  0  0  0  0  0  0  0  0  0  0  0
    4.4417   -3.2625    0.0000 C   0  0  0  0  0  0  0  0  0  0  0  0
    3.7250   -3.6667    0.0000 C   0  0  0  0  0  0  0  0  0  0  0  0
    5.9250   -4.7667    0.0000 C   0  0  0  0  0  0  0  0  0  0  0  0
    2.2917   -4.4875    0.0000 C   0  0  0  0  0  0  0  0  0  0  0  0
    6.4125   -4.1042    0.0000 C   0  0  0  0  0  0  0  0  0  0  0  0
    4.4292   -5.7292    0.0000 C   0  0  0  0  0  0  0  0  0  0  0  0
    3.7125   -6.1417    0.0000 C   0  0  0  0  0  0  0  0  0  0  0  0
    2.2917   -6.1375    0.0000 C   0  0  0  0  0  0  0  0  0  0  0  0
    6.1500   -2.6375    0.0000 C   0  0  0  0  0  0  0  0  0  0  0  0
    6.9417   -2.4167    0.0000 C   0  0  0  0  0  0  0  0  0  0  0  0
    7.5292   -2.9917    0.0000 C   0  0  0  0  0  0  0  0  0  0  0  0
    5.1500   -2.8542    0.0000 C   0  0  0  0  0  0  0  0  0  0  0  0
    8.3250   -2.7792    0.0000 C   0  0  0  0  0  0  0  0  0  0  0  0
    1.5792   -4.9042    0.0000 C   0  0  0  0  0  0  0  0  0  0  0  0
    1.5792   -5.7292    0.0000 C   0  0  0  0  0  0  0  0  0  0  0  0
    3.0000   -4.0792    0.0000 C   0  0  0  0  0  0  0  0  0  0  0  0
    8.9125   -3.3542    0.0000 C   0  0  0  0  0  0  0  0  0  0  0  0
    0.8667   -6.1417    0.0000 O   0  0  0  0  0  0  0  0  0  0  0  0
    8.5375   -1.9792    0.0000 C   0  0  0  0  0  0  0  0  0  0  0  0
    5.5625   -2.0542    0.0000 C   0  0  0  0  0  0  0  0  0  0  0  0
    9.7042   -3.1417    0.0000 C   0  0  0  0  0  0  0  0  0  0  0  0
    8.7042   -4.1542    0.0000 C   0  0  0  0  0  0  0  0  0  0  0  0
    9.3292   -1.7542    0.0000 C   0  0  0  0  0  0  0  0  0  0  0  0
  2  4  1  0
  3  1  1  0
  4  9  1  0
  5  3  1  0
  6  1  1  0
  7  2  1  0
  8  1  1  0
  9  8  1  0
 10  3  1  0
 11  2  1  0
 12  6  1  0
 13  5  1  0
 14 13  1  0
 15  7  1  0
  6 16  1  1
 17 16  1  0
 18 17  1  0
  1 19  1  1
 20 18  1  1
 21 11  1  0
 22 21  1  0
  2 23  1  1
 24 20  1  0
 22 25  1  1
 20 26  1  0
 27 16  1  0
 28 24  1  0
 29 24  1  0
 30 26  1  0
 10 12  1  0
  5  4  1  0
  7 14  1  0
 15 22  1  0
M  END
>  <ID>  (1640) 


>  <MOLENAME>  (1640) 
FUCOSTANOL

>  <therap>  (1640) 
nan

>  <ref>  (1640) 
J Am Chem Soc 60: 2431 (1938)

>  <cas#>  (1640) 
83-45-4

>  <source>  (1640) 
Calendula officinalis

>  <status>  (1640) 
undetermined activity

>  <tradename>  (1640) 
nan

>  <SMILES>  (1640) 
CC[C@H](CCC(C)[C@H]1CCC2C3CCC4C[C@@H](O)CC[C@]4(C)C3CC[C@@]21C)C(C)C

>  <standardized_failed>  (1640) 
False

$$$$

     RDKit          2D

 39 44  0  0  0  0  0  0  0  0999 V2000
    7.1625   -3.7292    0.0000 C   0  0  0  0  0  0  0  0  0  0  0  0
    7.8667   -4.1542    0.0000 C   0  0  0  0  0  0  0  0  0  0  0  0
    6.4500   -4.1417    0.0000 C   0  0  0  0  0  0  0  0  0  0  0  0
    7.1792   -2.9167    0.0000 C   0  0  0  0  0  0  0  0  0  0  0  0
    7.0750   -4.5917    0.0000 O   0  0  0  0  0  0  0  0  0  0  0  0
    5.0292   -4.1292    0.0000 C   0  0  0  0  0  0  0  0  0  0  0  0
    5.7417   -3.7167    0.0000 C   0  0  0  0  0  0  0  0  0  0  0  0
    8.5875   -3.7542    0.0000 C   0  0  0  0  0  0  0  0  0  0  0  0
    5.0250   -4.9542    0.0000 C   0  0  0  0  0  0  0  0  0  0  0  0
    7.8917   -2.5167    0.0000 C   0  0  0  0  0  0  0  0  0  0  0  0
    8.6000   -2.9417    0.0000 O   0  0  0  0  0  0  0  0  0  0  0  0
    4.3167   -5.3667    0.0000 C   0  0  0  0  0  0  0  0  0  0  0  0
    6.4542   -4.9667    0.0000 C   0  0  0  0  0  0  0  0  0  0  0  0
    4.3167   -3.7167    0.0000 C   0  0  0  0  0  0  0  0  0  0  0  0
    3.6125   -4.9542    0.0000 C   0  0  0  0  0  0  0  0  0  0  0  0
    7.9042   -1.6917    0.0000 C   0  0  0  0  0  0  0  0  0  0  0  0
    5.7375   -5.3667    0.0000 C   0  0  0  0  0  0  0  0  0  0  0  0
    3.6125   -4.1292    0.0000 C   0  0  0  0  0  0  0  0  0  0  0  0
    6.4750   -2.4917    0.0000 C   0  0  0  0  0  0  0  0  0  0  0  0
    5.7500   -2.8917    0.0000 C   0  0  0  0  0  0  0  0  0  0  0  0
    4.3167   -2.8917    0.0000 O   0  0  0  0  0  0  0  0  0  0  0  0
    2.8917   -5.3667    0.0000 O   0  0  0  0  0  0  0  0  0  0  0  0
    2.8917   -6.1917    0.0000 C   0  0  0  0  0  0  0  0  0  0  0  0
    3.6042   -2.4792    0.0000 C   0  0  0  0  0  0  0  0  0  0  0  0
    9.2917   -4.1792    0.0000 O   0  0  0  0  0  0  0  0  0  0  0  0
    8.5792   -1.2167    0.0000 C   0  0  0  0  0  0  0  0  0  0  0  0
    7.2417   -1.1917    0.0000 C   0  0  0  0  0  0  0  0  0  0  0  0
    8.3375   -0.4292    0.0000 O   0  0  0  0  0  0  0  0  0  0  0  0
    7.5125   -0.4167    0.0000 C   0  0  0  0  0  0  0  0  0  0  0  0
    2.1750   -6.6042    0.0000 O   0  0  0  0  0  0  0  0  0  0  0  0
    3.6042   -1.6542    0.0000 O   0  0  0  0  0  0  0  0  0  0  0  0
    6.4500   -3.3167    0.0000 C   0  0  0  0  0  0  0  0  0  0  0  0
    7.1750   -2.0917    0.0000 C   0  0  0  0  0  0  0  0  0  0  0  0
    7.1667   -5.3792    0.0000 O   0  0  0  0  0  0  0  0  0  0  0  0
    5.0250   -3.3042    0.0000 C   0  0  0  0  0  0  0  0  0  0  0  0
    4.9000   -5.9542    0.0000 C   0  0  0  0  0  0  0  0  0  0  0  0
    3.7292   -5.9542    0.0000 C   0  0  0  0  0  0  0  0  0  0  0  0
    2.8875   -2.8917    0.0000 C   0  0  0  0  0  0  0  0  0  0  0  0
    3.6042   -6.6042    0.0000 C   0  0  0  0  0  0  0  0  0  0  0  0
  2  1  1  0
  3  1  1  0
  4  1  1  0
  1  5  1  1
  6  7  1  0
  7  3  1  0
  8  2  1  0
  9 17  1  0
 10  4  1  0
 10 11  1  6
 12  9  1  0
 13  3  1  0
 14  6  1  0
 15 12  1  0
 10 16  1  0
 17 13  1  0
 18 14  1  0
 19  4  1  0
 20 19  1  0
 14 21  1  6
 15 22  1  6
 23 22  1  0
 24 21  1  0
 25  8  2  0
 26 16  2  0
 27 16  1  0
 28 26  1  0
 29 27  2  0
 30 23  2  0
 31 24  2  0
  3 32  1  1
  4 33  1  6
 13 34  1  6
  6 35  1  1
 36 12  1  0
 37 12  1  0
 38 24  1  0
 39 23  1  0
  2  5  1  1
 20  7  1  0
 11  8  1  0
  9  6  1  0
 29 28  1  0
 15 18  1  0
M  END
>  <ID>  (1641) 


>  <MOLENAME>  (1641) 
7-DEACETYLKHIVORIN

>  <therap>  (1641) 
nan

>  <ref>  (1641) 
J Chem Soc 1970: 1710

>  <cas#>  (1641) 
nan

>  <source>  (1641) 
Khaya species and other West African timbers

>  <status>  (1641) 
undetermined activity

>  <tradename>  (1641) 
nan

>  <SMILES>  (1641) 
CC(=O)O[C@H]1C[C@@H](OC(C)=O)C(C)(C)C2C[C@@H](O)[C@]3(C)C(CC[C@@]4(C)[C@H](c5cocc5)OC(=O)[C@H]5O[C@]543)[C@]21C

>  <standardized_failed>  (1641) 
False

$$$$

     RDKit          2D

 34 39  0  0  0  0  0  0  0  0999 V2000
    3.2750    0.0125    0.0000 C   0  0  0  0  0  0  0  0  0  0  0  0
    5.3292    0.6458    0.0000 C   0  0  0  0  0  0  0  0  0  0  0  0
    3.2750   -0.8167    0.0000 C   0  0  0  0  0  0  0  0  0  0  0  0
    4.0750    0.2833    0.0000 C   0  0  0  0  0  0  0  0  0  0  0  0
    1.8417   -0.7917    0.0000 C   0  0  0  0  0  0  0  0  0  0  0  0
    2.5542    0.4375    0.0000 C   0  0  0  0  0  0  0  0  0  0  0  0
    1.1167   -1.2167    0.0000 C   0  0  0  0  0  0  0  0  0  0  0  0
    4.5417   -0.3875    0.0000 C   0  0  0  0  0  0  0  0  0  0  0  0
    2.5542   -1.2167    0.0000 C   0  0  0  0  0  0  0  0  0  0  0  0
    5.3292   -0.1417    0.0000 O   0  0  0  0  0  0  0  0  0  0  0  0
    1.8417    0.0125    0.0000 C   0  0  0  0  0  0  0  0  0  0  0  0
    4.5625    0.9333    0.0000 C   0  0  0  0  0  0  0  0  0  0  0  0
    4.0750   -1.0667    0.0000 C   0  0  0  0  0  0  0  0  0  0  0  0
    5.9917    0.9000    0.0000 O   0  0  0  0  0  0  0  0  0  0  0  0
    1.1167   -2.0542    0.0000 C   0  0  0  0  0  0  0  0  0  0  0  0
    0.4042   -0.7917    0.0000 C   0  0  0  0  0  0  0  0  0  0  0  0
    2.5542   -2.0542    0.0000 C   0  0  0  0  0  0  0  0  0  0  0  0
   -1.7708   -1.9875    0.0000 C   0  0  0  0  0  0  0  0  0  0  0  0
    5.8792    1.3458    0.0000 C   0  0  0  0  0  0  0  0  0  0  0  0
    2.5542    1.2208    0.0000 O   0  0  0  0  0  0  0  0  0  0  0  0
    0.4042   -2.4500    0.0000 C   0  0  0  0  0  0  0  0  0  0  0  0
    1.8417   -2.4500    0.0000 C   0  0  0  0  0  0  0  0  0  0  0  0
   -1.0583   -2.4167    0.0000 O   0  0  0  0  0  0  0  0  0  0  0  0
   -0.3125   -2.0250    0.0000 C   0  0  0  0  0  0  0  0  0  0  0  0
   -1.7708   -1.1375    0.0000 O   0  0  0  0  0  0  0  0  0  0  0  0
    3.2625    0.8208    0.0000 C   0  0  0  0  0  0  0  0  0  0  0  0
    6.8792    0.6458    0.0000 C   0  0  0  0  0  0  0  0  0  0  0  0
   -0.3125   -1.2167    0.0000 C   0  0  0  0  0  0  0  0  0  0  0  0
    1.1167   -0.3875    0.0000 C   0  0  0  0  0  0  0  0  0  0  0  0
    6.7542    1.0000    0.0000 C   0  0  0  0  0  0  0  0  0  0  0  0
    7.4167    1.3458    0.0000 C   0  0  0  0  0  0  0  0  0  0  0  0
    4.3417    1.7333    0.0000 C   0  0  0  0  0  0  0  0  0  0  0  0
   -2.4875   -2.3875    0.0000 C   0  0  0  0  0  0  0  0  0  0  0  0
    8.2167    1.3458    0.0000 C   0  0  0  0  0  0  0  0  0  0  0  0
  2 12  1  0
  3  1  1  0
  4  1  1  0
  5 11  1  0
  6  1  1  0
  7  5  1  0
  8  4  1  0
  9  3  1  0
 10  8  1  0
 11  6  1  0
 12  4  1  0
 13  3  1  0
 14  2  1  0
 15  7  1  0
 16  7  1  0
 17  9  1  0
 18 23  1  0
 19  2  1  0
 20  6  2  0
 15 21  1  1
 22 17  1  0
 23 24  1  0
 24 28  1  0
 25 18  2  0
 26  1  1  0
 27 14  1  0
 28 16  1  0
 29  7  1  0
 30 19  1  0
 31 30  1  0
 12 32  1  6
 33 18  1  0
 34 31  1  0
 13  8  1  0
  9  5  1  0
 10  2  1  0
 22 15  1  0
 27 31  1  0
 24 21  1  0
M  END
>  <ID>  (1642) 


>  <MOLENAME>  (1642) 
HECOGENIN ACETATE

>  <therap>  (1642) 
nan

>  <ref>  (1642) 
nan

>  <cas#>  (1642) 
915-35-5

>  <source>  (1642) 
Hechtia texensis, Agave & Yucca spp

>  <status>  (1642) 
undetermined activity

>  <tradename>  (1642) 
nan

>  <SMILES>  (1642) 
CC(=O)OC1CCC2(C)C3CC(=O)C4(C)C(CC5OC6(CCC(C)CO6)[C@@H](C)C54)C3CC[C@H]2C1

>  <standardized_failed>  (1642) 
False

$$$$

     RDKit          2D

 63 63  0  0  0  0  0  0  0  0999 V2000
    1.3667   -2.3042    0.0000 C   0  0  0  0  0  0  0  0  0  0  0  0
    1.3667   -3.1292    0.0000 C   0  0  0  0  0  0  0  0  0  0  0  0
    2.7875   -3.1292    0.0000 C   0  0  0  0  0  0  0  0  0  0  0  0
    2.0667   -3.5417    0.0000 C   0  0  0  0  0  0  0  0  0  0  0  0
    2.0667   -1.8917    0.0000 C   0  0  0  0  0  0  0  0  0  0  0  0
    2.7875   -2.3042    0.0000 C   0  0  0  0  0  0  0  0  0  0  0  0
    3.5000   -3.5417    0.0000 C   0  0  0  0  0  0  0  0  0  0  0  0
    4.2125   -3.1292    0.0000 C   0  0  0  0  0  0  0  0  0  0  0  0
    2.0667   -1.0667    0.0000 O   0  0  0  0  0  0  0  0  0  0  0  0
    2.0667   -4.3667    0.0000 O   0  0  0  0  0  0  0  0  0  0  0  0
    4.9250   -3.5417    0.0000 C   0  0  0  0  0  0  0  0  0  0  0  0
    0.6500   -3.5417    0.0000 O   0  0  0  0  0  0  0  0  0  0  0  0
    0.6500   -1.8917    0.0000 O   0  0  0  0  0  0  0  0  0  0  0  0
    7.7750   -3.5417    0.0000 C   0  0  0  0  0  0  0  0  0  0  0  0
   10.6250   -3.5417    0.0000 C   0  0  0  0  0  0  0  0  0  0  0  0
   13.4750   -3.5417    0.0000 C   0  0  0  0  0  0  0  0  0  0  0  0
   12.0500   -6.0042    0.0000 C   0  0  0  0  0  0  0  0  0  0  0  0
    9.9125   -7.2417    0.0000 C   0  0  0  0  0  0  0  0  0  0  0  0
    7.0625   -7.2500    0.0000 C   0  0  0  0  0  0  0  0  0  0  0  0
    4.2125   -7.2542    0.0000 C   0  0  0  0  0  0  0  0  0  0  0  0
    1.3625   -7.2667    0.0000 C   0  0  0  0  0  0  0  0  0  0  0  0
   -1.4875   -7.2750    0.0000 C   0  0  0  0  0  0  0  0  0  0  0  0
   -0.7750   -6.8625    0.0000 C   0  0  0  0  0  0  0  0  0  0  0  0
    7.7750   -6.8375    0.0000 C   0  0  0  0  0  0  0  0  0  0  0  0
    9.9125   -3.1292    0.0000 C   0  0  0  0  0  0  0  0  0  0  0  0
    4.9250   -6.8417    0.0000 C   0  0  0  0  0  0  0  0  0  0  0  0
   12.7625   -5.5917    0.0000 C   0  0  0  0  0  0  0  0  0  0  0  0
    2.0667   -6.8542    0.0000 C   0  0  0  0  0  0  0  0  0  0  0  0
    7.0625   -3.1292    0.0000 C   0  0  0  0  0  0  0  0  0  0  0  0
   10.6250   -6.8292    0.0000 C   0  0  0  0  0  0  0  0  0  0  0  0
   12.7625   -3.1292    0.0000 C   0  0  0  0  0  0  0  0  0  0  0  0
    3.5042   -1.8917    0.0000 C   0  0  0  0  0  0  0  0  0  0  0  0
    5.6375   -7.2542    0.0000 C   0  0  0  0  0  0  0  0  0  0  0  0
   11.3375   -7.2375    0.0000 C   0  0  0  0  0  0  0  0  0  0  0  0
    9.2000   -3.5417    0.0000 C   0  0  0  0  0  0  0  0  0  0  0  0
    2.7875   -7.2625    0.0000 C   0  0  0  0  0  0  0  0  0  0  0  0
   12.7625   -4.7750    0.0000 C   0  0  0  0  0  0  0  0  0  0  0  0
    8.4875   -7.2417    0.0000 C   0  0  0  0  0  0  0  0  0  0  0  0
   -0.0625   -7.2667    0.0000 C   0  0  0  0  0  0  0  0  0  0  0  0
   12.0500   -3.5417    0.0000 C   0  0  0  0  0  0  0  0  0  0  0  0
    6.3500   -3.5417    0.0000 C   0  0  0  0  0  0  0  0  0  0  0  0
    5.6375   -3.1292    0.0000 C   0  0  0  0  0  0  0  0  0  0  0  0
    3.5000   -6.8500    0.0000 C   0  0  0  0  0  0  0  0  0  0  0  0
   11.3375   -3.1292    0.0000 C   0  0  0  0  0  0  0  0  0  0  0  0
    8.4875   -3.1292    0.0000 C   0  0  0  0  0  0  0  0  0  0  0  0
    6.3500   -6.8417    0.0000 C   0  0  0  0  0  0  0  0  0  0  0  0
    0.6500   -6.8542    0.0000 C   0  0  0  0  0  0  0  0  0  0  0  0
   13.4750   -4.3667    0.0000 C   0  0  0  0  0  0  0  0  0  0  0  0
    9.2000   -6.8292    0.0000 C   0  0  0  0  0  0  0  0  0  0  0  0
   12.0500   -6.8250    0.0000 C   0  0  0  0  0  0  0  0  0  0  0  0
    4.9250   -4.3667    0.0000 C   0  0  0  0  0  0  0  0  0  0  0  0
   -2.2000   -6.8667    0.0000 C   0  0  0  0  0  0  0  0  0  0  0  0
   -1.4875   -8.1000    0.0000 C   0  0  0  0  0  0  0  0  0  0  0  0
   10.6250   -4.3667    0.0000 C   0  0  0  0  0  0  0  0  0  0  0  0
   14.1875   -3.1292    0.0000 C   0  0  0  0  0  0  0  0  0  0  0  0
   11.3292   -5.5875    0.0000 C   0  0  0  0  0  0  0  0  0  0  0  0
    9.9125   -8.0667    0.0000 C   0  0  0  0  0  0  0  0  0  0  0  0
    7.0625   -8.0750    0.0000 C   0  0  0  0  0  0  0  0  0  0  0  0
    4.2125   -8.0792    0.0000 C   0  0  0  0  0  0  0  0  0  0  0  0
    1.3625   -8.0917    0.0000 C   0  0  0  0  0  0  0  0  0  0  0  0
    7.7750   -4.3667    0.0000 C   0  0  0  0  0  0  0  0  0  0  0  0
   -0.0625   -3.1292    0.0000 C   0  0  0  0  0  0  0  0  0  0  0  0
    0.6417   -1.0667    0.0000 C   0  0  0  0  0  0  0  0  0  0  0  0
  2  1  2  0
  3  6  2  0
  4  2  1  0
  5  1  1  0
  6  5  1  0
  7  3  1  0
  8  7  1  0
  9  5  2  0
 10  4  2  0
 11  8  2  0
 12  2  1  0
 13  1  1  0
 14 29  2  0
 15 25  2  0
 16 31  2  0
 17 27  2  0
 18 30  2  0
 19 24  2  0
 20 26  2  0
 21 28  2  0
 22 23  2  0
 23 39  1  0
 24 38  1  0
 25 35  1  0
 26 33  1  0
 27 37  1  0
 28 36  1  0
 29 41  1  0
 30 34  1  0
 31 40  1  0
 32  6  1  0
 33 46  1  0
 34 50  1  0
 35 45  1  0
 36 43  1  0
 37 48  1  0
 38 49  1  0
 39 47  1  0
 40 44  1  0
 41 42  1  0
 42 11  1  0
 43 20  1  0
 44 15  1  0
 45 14  1  0
 46 19  1  0
 47 21  1  0
 48 16  1  0
 49 18  1  0
 50 17  1  0
 51 11  1  0
 52 22  1  0
 53 22  1  0
 54 15  1  0
 55 16  1  0
 56 17  1  0
 57 18  1  0
 58 19  1  0
 59 20  1  0
 60 21  1  0
 61 14  1  0
 62 12  1  0
 63 13  1  0
  3  4  1  0
M  END
>  <ID>  (1643) 


>  <MOLENAME>  (1643) 
UBIDECARENEONE

>  <therap>  (1643) 
cardiovascular agent

>  <ref>  (1643) 
nan

>  <cas#>  (1643) 
303-98-0

>  <source>  (1643) 
widespread in aerobic organisms (solubility limits concentration to ~5mM); COENZYME Q10

>  <status>  (1643) 
experimental

>  <tradename>  (1643) 
nan

>  <SMILES>  (1643) 
COC1=C(OC)C(=O)C(C/C=C(\C)CC/C=C(\C)CC/C=C(\C)CC/C=C(/C)CC/C=C(\C)CC/C=C(\C)CC/C=C(\C)CC/C=C(\C)CC/C=C(\C)CCC=C(C)C)=C(C)C1=O

>  <standardized_failed>  (1643) 
False

$$$$

     RDKit          2D

 29 32  0  0  0  0  0  0  0  0999 V2000
    4.1375   -2.2542    0.0000 C   0  0  0  0  0  0  0  0  0  0  0  0
    2.7375   -3.0792    0.0000 C   0  0  0  0  0  0  0  0  0  0  0  0
    2.0417   -3.4875    0.0000 C   0  0  0  0  0  0  0  0  0  0  0  0
    4.1417   -3.0667    0.0000 C   0  0  0  0  0  0  0  0  0  0  0  0
    3.4417   -3.4792    0.0000 C   0  0  0  0  0  0  0  0  0  0  0  0
    3.4292   -1.8542    0.0000 C   0  0  0  0  0  0  0  0  0  0  0  0
    2.0417   -4.3000    0.0000 C   0  0  0  0  0  0  0  0  0  0  0  0
    2.7292   -2.2667    0.0000 C   0  0  0  0  0  0  0  0  0  0  0  0
    3.4500   -4.2917    0.0000 C   0  0  0  0  0  0  0  0  0  0  0  0
    4.8375   -1.8500    0.0000 C   0  0  0  0  0  0  0  0  0  0  0  0
    2.7417   -4.7042    0.0000 C   0  0  0  0  0  0  0  0  0  0  0  0
    5.5292   -3.0750    0.0000 C   0  0  0  0  0  0  0  0  0  0  0  0
    1.3292   -3.0875    0.0000 C   0  0  0  0  0  0  0  0  0  0  0  0
    5.5417   -2.2500    0.0000 C   0  0  0  0  0  0  0  0  0  0  0  0
    7.0167   -0.5667    0.0000 C   0  0  0  0  0  0  0  0  0  0  0  0
    1.3417   -4.7125    0.0000 C   0  0  0  0  0  0  0  0  0  0  0  0
    7.0042    0.2833    0.0000 O   0  0  0  0  0  0  0  0  0  0  0  0
    4.8292   -1.0042    0.0000 C   0  0  0  0  0  0  0  0  0  0  0  0
    5.5542   -0.5792    0.0000 C   0  0  0  0  0  0  0  0  0  0  0  0
    3.4292   -1.0292    0.0000 O   0  0  0  0  0  0  0  0  0  0  0  0
    4.1667   -4.7000    0.0000 O   0  0  0  0  0  0  0  0  0  0  0  0
    6.2875   -0.9917    0.0000 C   0  0  0  0  0  0  0  0  0  0  0  0
    4.1292   -1.4167    0.0000 C   0  0  0  0  0  0  0  0  0  0  0  0
    0.6292   -3.4917    0.0000 C   0  0  0  0  0  0  0  0  0  0  0  0
    0.6375   -4.3042    0.0000 C   0  0  0  0  0  0  0  0  0  0  0  0
    2.0292   -2.6417    0.0000 C   0  0  0  0  0  0  0  0  0  0  0  0
    7.7417   -0.9792    0.0000 O   0  0  0  0  0  0  0  0  0  0  0  0
   -0.0833   -4.7167    0.0000 O   0  0  0  0  0  0  0  0  0  0  0  0
    4.0917   -0.5917    0.0000 C   0  0  0  0  0  0  0  0  0  0  0  0
  2  8  1  0
  3  2  1  0
  4  1  1  0
  5  4  1  0
  6  1  1  0
  7  3  1  0
  8  6  1  0
  9  5  1  0
 10  1  1  0
 11  9  1  0
 12  4  1  0
 13  3  1  0
 14 10  1  0
 15 22  1  0
  7 16  1  6
 17 15  2  0
 10 18  1  1
 19 18  1  0
  6 20  1  6
  9 21  1  6
 22 19  1  0
  1 23  1  1
 24 13  1  0
 25 24  1  0
  3 26  1  1
 27 15  1  0
 25 28  1  6
 29 18  1  0
 12 14  1  0
  5  2  1  0
  7 11  1  0
 25 16  1  0
M  END
>  <ID>  (1644) 


>  <MOLENAME>  (1644) 
CHOLIC ACID

>  <therap>  (1644) 
nan

>  <ref>  (1644) 
Biochem J 85: 236 (1962)

>  <cas#>  (1644) 
81-25-4

>  <source>  (1644) 
mammalian bile

>  <status>  (1644) 
undetermined activity

>  <tradename>  (1644) 
nan

>  <SMILES>  (1644) 
CC(CCC(=O)O)[C@H]1CCC2C3C(C[C@H](O)[C@@]21C)[C@@]1(C)CC[C@@H](O)C[C@H]1C[C@H]3O

>  <standardized_failed>  (1644) 
False

$$$$

     RDKit          2D

 30 32  0  0  0  0  0  0  0  0999 V2000
    3.9500   -2.4667    0.0000 C   0  0  0  0  0  0  0  0  0  0  0  0
    4.6542   -2.0500    0.0000 C   0  0  0  0  0  0  0  0  0  0  0  0
    5.3750   -2.4542    0.0000 C   0  0  0  0  0  0  0  0  0  0  0  0
    3.2292   -2.0542    0.0000 C   0  0  0  0  0  0  0  0  0  0  0  0
    6.0875   -2.0417    0.0000 C   0  0  0  0  0  0  0  0  0  0  0  0
    3.9500   -3.2917    0.0000 C   0  0  0  0  0  0  0  0  0  0  0  0
    5.3792   -3.2875    0.0000 C   0  0  0  0  0  0  0  0  0  0  0  0
    2.5167   -2.4667    0.0000 C   0  0  0  0  0  0  0  0  0  0  0  0
    4.6667   -3.7042    0.0000 O   0  0  0  0  0  0  0  0  0  0  0  0
    6.8042   -2.4417    0.0000 C   0  0  0  0  0  0  0  0  0  0  0  0
    2.5167   -3.2917    0.0000 C   0  0  0  0  0  0  0  0  0  0  0  0
    3.2292   -3.7042    0.0000 C   0  0  0  0  0  0  0  0  0  0  0  0
    6.0917   -3.6917    0.0000 C   0  0  0  0  0  0  0  0  0  0  0  0
    6.8125   -3.2792    0.0000 C   0  0  0  0  0  0  0  0  0  0  0  0
    6.0792   -1.2167    0.0000 C   0  0  0  0  0  0  0  0  0  0  0  0
    1.8042   -2.0542    0.0000 C   0  0  0  0  0  0  0  0  0  0  0  0
    6.7917   -0.7917    0.0000 C   0  0  0  0  0  0  0  0  0  0  0  0
    1.8042   -1.2292    0.0000 C   0  0  0  0  0  0  0  0  0  0  0  0
    4.6542   -1.2250    0.0000 O   0  0  0  0  0  0  0  0  0  0  0  0
    1.0917   -0.8167    0.0000 C   0  0  0  0  0  0  0  0  0  0  0  0
    6.7792    0.0333    0.0000 C   0  0  0  0  0  0  0  0  0  0  0  0
    3.2292   -1.2292    0.0000 O   0  0  0  0  0  0  0  0  0  0  0  0
    1.8042   -3.7042    0.0000 O   0  0  0  0  0  0  0  0  0  0  0  0
    7.5167   -2.0250    0.0000 O   0  0  0  0  0  0  0  0  0  0  0  0
    7.5292   -3.6875    0.0000 O   0  0  0  0  0  0  0  0  0  0  0  0
    7.4917    0.4458    0.0000 C   0  0  0  0  0  0  0  0  0  0  0  0
    6.0667    0.4333    0.0000 C   0  0  0  0  0  0  0  0  0  0  0  0
    1.0917    0.0083    0.0000 C   0  0  0  0  0  0  0  0  0  0  0  0
    0.3792   -1.2292    0.0000 C   0  0  0  0  0  0  0  0  0  0  0  0
    8.2292   -2.4292    0.0000 C   0  0  0  0  0  0  0  0  0  0  0  0
  2  1  1  0
  3  2  1  0
  4  1  2  0
  5  3  2  0
  6  1  1  0
  7  9  1  0
  8  4  1  0
  9  6  1  0
 10  5  1  0
 11 12  1  0
 12  6  2  0
 13  7  2  0
 14 13  1  0
 15  5  1  0
 16  8  1  0
 17 15  1  0
 18 16  1  0
 19  2  2  0
 20 18  2  0
 21 17  2  0
 22  4  1  0
 23 11  1  0
 24 10  1  0
 25 14  1  0
 26 21  1  0
 27 21  1  0
 28 20  1  0
 29 20  1  0
 30 24  1  0
  8 11  2  0
  3  7  1  0
 14 10  2  0
M  END
>  <ID>  (1645) 


>  <MOLENAME>  (1645) 
alpha-MANGOSTIN

>  <therap>  (1645) 
nan

>  <ref>  (1645) 
JACS 80:1691 (1958); Aust J Chem 23:2539 (1970); Tetrahedron 27:3919 (1971); Phytochemistry 12:232 (1973)

>  <cas#>  (1645) 
6147-11-1

>  <source>  (1645) 
Garcinia mangostana, Hydnocarpus octandra, H venenata

>  <status>  (1645) 
undetermined activity

>  <tradename>  (1645) 
nan

>  <SMILES>  (1645) 
COc1c(O)cc2oc3cc(O)c(CC=C(C)C)c(O)c3c(=O)c2c1CC=C(C)C

>  <standardized_failed>  (1645) 
False

$$$$

     RDKit          2D

 22 24  0  0  0  0  0  0  0  0999 V2000
    4.6750   -4.1417    0.0000 C   0  0  0  0  0  0  0  0  0  0  0  0
    5.3917   -4.5542    0.0000 C   0  0  0  0  0  0  0  0  0  0  0  0
    6.1000   -3.3125    0.0000 C   0  0  0  0  0  0  0  0  0  0  0  0
    6.1042   -4.1417    0.0000 C   0  0  0  0  0  0  0  0  0  0  0  0
    4.6750   -3.3167    0.0000 C   0  0  0  0  0  0  0  0  0  0  0  0
    5.3792   -2.9042    0.0000 O   0  0  0  0  0  0  0  0  0  0  0  0
    3.9542   -4.5625    0.0000 C   0  0  0  0  0  0  0  0  0  0  0  0
    6.8042   -2.8917    0.0000 C   0  0  0  0  0  0  0  0  0  0  0  0
    8.2292   -2.0667    0.0000 C   0  0  0  0  0  0  0  0  0  0  0  0
    8.2375   -2.8917    0.0000 C   0  0  0  0  0  0  0  0  0  0  0  0
    7.5125   -1.6542    0.0000 C   0  0  0  0  0  0  0  0  0  0  0  0
    3.9542   -2.9042    0.0000 C   0  0  0  0  0  0  0  0  0  0  0  0
    3.2417   -4.1500    0.0000 C   0  0  0  0  0  0  0  0  0  0  0  0
    7.5250   -3.3042    0.0000 C   0  0  0  0  0  0  0  0  0  0  0  0
    6.8042   -2.0750    0.0000 C   0  0  0  0  0  0  0  0  0  0  0  0
    3.2417   -3.3250    0.0000 C   0  0  0  0  0  0  0  0  0  0  0  0
    5.3917   -5.3792    0.0000 O   0  0  0  0  0  0  0  0  0  0  0  0
    3.9542   -5.3875    0.0000 O   0  0  0  0  0  0  0  0  0  0  0  0
    8.9417   -1.6500    0.0000 O   0  0  0  0  0  0  0  0  0  0  0  0
    8.9500   -3.3042    0.0000 O   0  0  0  0  0  0  0  0  0  0  0  0
    7.5042   -0.8292    0.0000 O   0  0  0  0  0  0  0  0  0  0  0  0
    2.5292   -2.9042    0.0000 O   0  0  0  0  0  0  0  0  0  0  0  0
  2  1  1  0
  3  6  1  0
  4  2  1  0
  5  1  2  0
  6  5  1  0
  7  1  1  0
  8  3  1  0
  9 11  2  0
 10 14  2  0
 11 15  1  0
 12  5  1  0
 13  7  2  0
 14  8  1  0
 15  8  2  0
 16 13  1  0
 17  2  2  0
 18  7  1  0
 19  9  1  0
 20 10  1  0
 21 11  1  0
 22 16  1  0
  3  4  2  0
 16 12  2  0
  9 10  1  0
M  END
>  <ID>  (1646) 


>  <MOLENAME>  (1646) 
HIERACIN

>  <therap>  (1646) 
nan

>  <ref>  (1646) 
Chem Pharm Bull 32:4935 (1984)

>  <cas#>  (1646) 
1621-84-7

>  <source>  (1646) 
Ginkgo biloba, Hieracium pilosella and Isoetes spp

>  <status>  (1646) 
undetermined activity

>  <tradename>  (1646) 
nan

>  <SMILES>  (1646) 
O=c1cc(-c2cc(O)c(O)c(O)c2)oc2c1c(O)cc(O)c2

>  <standardized_failed>  (1646) 
False

$$$$

     RDKit          2D

 30 33  0  0  0  0  0  0  0  0999 V2000
    2.8792   -0.8667    0.0000 C   0  0  0  0  0  0  0  0  0  0  0  0
    0.7250   -2.0917    0.0000 C   0  0  0  0  0  0  0  0  0  0  0  0
    0.7167   -2.9167    0.0000 C   0  0  0  0  0  0  0  0  0  0  0  0
    2.8667   -1.6917    0.0000 C   0  0  0  0  0  0  0  0  0  0  0  0
    1.4375   -1.6792    0.0000 C   0  0  0  0  0  0  0  0  0  0  0  0
    2.1500   -2.1000    0.0000 C   0  0  0  0  0  0  0  0  0  0  0  0
    3.6667   -0.6250    0.0000 C   0  0  0  0  0  0  0  0  0  0  0  0
    1.4292   -3.3292    0.0000 C   0  0  0  0  0  0  0  0  0  0  0  0
    2.1667   -0.4417    0.0000 C   0  0  0  0  0  0  0  0  0  0  0  0
    2.1500   -2.9167    0.0000 C   0  0  0  0  0  0  0  0  0  0  0  0
    1.4417   -0.8500    0.0000 C   0  0  0  0  0  0  0  0  0  0  0  0
    3.6500   -1.9625    0.0000 C   0  0  0  0  0  0  0  0  0  0  0  0
    4.9000    0.1083    0.0000 C   0  0  0  0  0  0  0  0  0  0  0  0
    5.3167   -0.6042    0.0000 C   0  0  0  0  0  0  0  0  0  0  0  0
    0.0125   -1.6750    0.0000 C   0  0  0  0  0  0  0  0  0  0  0  0
    4.0917   -1.3292    0.0000 C   0  0  0  0  0  0  0  0  0  0  0  0
    0.0125   -3.3250    0.0000 C   0  0  0  0  0  0  0  0  0  0  0  0
    4.0792    0.0958    0.0000 C   0  0  0  0  0  0  0  0  0  0  0  0
    6.1417   -0.6000    0.0000 C   0  0  0  0  0  0  0  0  0  0  0  0
    2.8792   -0.0417    0.0000 C   0  0  0  0  0  0  0  0  0  0  0  0
   -0.6958   -2.0917    0.0000 C   0  0  0  0  0  0  0  0  0  0  0  0
   -0.6958   -2.9167    0.0000 C   0  0  0  0  0  0  0  0  0  0  0  0
    0.7167   -1.2667    0.0000 C   0  0  0  0  0  0  0  0  0  0  0  0
    6.5667   -1.3042    0.0000 C   0  0  0  0  0  0  0  0  0  0  0  0
   -1.4125   -3.3292    0.0000 O   0  0  0  0  0  0  0  0  0  0  0  0
    6.5500    0.1208    0.0000 C   0  0  0  0  0  0  0  0  0  0  0  0
    3.6542    0.8083    0.0000 C   0  0  0  0  0  0  0  0  0  0  0  0
    6.1625   -2.0292    0.0000 C   0  0  0  0  0  0  0  0  0  0  0  0
    7.3917   -1.3000    0.0000 C   0  0  0  0  0  0  0  0  0  0  0  0
    7.3750    0.1333    0.0000 C   0  0  0  0  0  0  0  0  0  0  0  0
  2  5  1  0
  3  2  1  0
  4  1  1  0
  5 11  1  0
  6  4  1  0
  7  1  1  0
  8 10  1  0
  9  1  1  0
 10  6  1  0
 11  9  1  0
 12  4  1  0
 13 18  1  0
 14 13  2  0
 15  2  1  0
  7 16  1  1
 17  3  1  0
  7 18  1  0
 19 14  1  0
  1 20  1  1
 21 15  1  0
 22 21  1  0
  2 23  1  1
 24 19  1  0
 22 25  1  1
 26 19  1  0
 18 27  1  6
 28 24  1  0
 29 24  1  0
 30 26  1  0
 12 16  1  0
  6  5  1  0
  3  8  2  0
 17 22  1  0
M  END
>  <ID>  (1647) 


>  <MOLENAME>  (1647) 
STIGMASTEROL

>  <therap>  (1647) 
nan

>  <ref>  (1647) 
nan

>  <cas#>  (1647) 
nan

>  <source>  (1647) 
soya and calabar beans; widely distributed in plant oils

>  <status>  (1647) 
undetermined activity

>  <tradename>  (1647) 
nan

>  <SMILES>  (1647) 
CCC(/C=C/[C@@H](C)[C@H]1CCC2C3CC=C4C[C@@H](O)CC[C@]4(C)C3CC[C@@]21C)C(C)C

>  <standardized_failed>  (1647) 
False

$$$$

     RDKit          2D

 27 28  0  0  0  0  0  0  0  0999 V2000
    2.6042   -3.2792    0.0000 C   0  0  0  0  0  0  0  0  0  0  0  0
    6.1750   -2.0292    0.0000 C   0  0  0  0  0  0  0  0  0  0  0  0
    3.3167   -2.8625    0.0000 C   0  0  0  0  0  0  0  0  0  0  0  0
    5.4500   -1.6167    0.0000 C   0  0  0  0  0  0  0  0  0  0  0  0
    2.6042   -4.1042    0.0000 C   0  0  0  0  0  0  0  0  0  0  0  0
    4.7417   -2.0375    0.0000 C   0  0  0  0  0  0  0  0  0  0  0  0
    4.7500   -2.8542    0.0000 C   0  0  0  0  0  0  0  0  0  0  0  0
    1.8917   -4.5167    0.0000 C   0  0  0  0  0  0  0  0  0  0  0  0
    1.8917   -2.8667    0.0000 C   0  0  0  0  0  0  0  0  0  0  0  0
    6.1750   -2.8542    0.0000 C   0  0  0  0  0  0  0  0  0  0  0  0
    4.0375   -3.2667    0.0000 O   0  0  0  0  0  0  0  0  0  0  0  0
    6.8875   -1.6125    0.0000 C   0  0  0  0  0  0  0  0  0  0  0  0
    1.1792   -4.1042    0.0000 C   0  0  0  0  0  0  0  0  0  0  0  0
    5.4625   -3.2667    0.0000 C   0  0  0  0  0  0  0  0  0  0  0  0
    1.1792   -3.2792    0.0000 C   0  0  0  0  0  0  0  0  0  0  0  0
    3.3167   -2.0375    0.0000 O   0  0  0  0  0  0  0  0  0  0  0  0
    6.8792   -0.7875    0.0000 O   0  0  0  0  0  0  0  0  0  0  0  0
    5.4417   -0.7917    0.0000 O   0  0  0  0  0  0  0  0  0  0  0  0
    3.3250   -4.5167    0.0000 O   0  0  0  0  0  0  0  0  0  0  0  0
    7.6000   -2.0167    0.0000 O   0  0  0  0  0  0  0  0  0  0  0  0
    0.4625   -4.5167    0.0000 O   0  0  0  0  0  0  0  0  0  0  0  0
    4.0250   -1.6292    0.0000 C   0  0  0  0  0  0  0  0  0  0  0  0
    1.8917   -5.3417    0.0000 C   0  0  0  0  0  0  0  0  0  0  0  0
    1.8875   -2.0417    0.0000 C   0  0  0  0  0  0  0  0  0  0  0  0
    6.8917   -3.2667    0.0000 C   0  0  0  0  0  0  0  0  0  0  0  0
    3.3250   -5.3417    0.0000 C   0  0  0  0  0  0  0  0  0  0  0  0
   -0.2500   -4.1042    0.0000 C   0  0  0  0  0  0  0  0  0  0  0  0
  2 10  2  0
  3  1  1  0
  4  6  2  0
  5  1  2  0
  6  7  1  0
  7 11  1  0
  8  5  1  0
  9  1  1  0
 10 14  1  0
 11  3  1  0
 12  2  1  0
 13 15  1  0
 14  7  2  0
 15  9  2  0
 16  3  2  0
 17 12  2  0
 18  4  1  0
 19  5  1  0
 20 12  1  0
 21 13  1  0
 22  6  1  0
 23  8  1  0
 24  9  1  0
 25 10  1  0
 26 19  1  0
 27 21  1  0
  8 13  2  0
  4  2  1  0
M  END
>  <ID>  (1648) 


>  <MOLENAME>  (1648) 
DIFFRACTAIC ACID

>  <therap>  (1648) 
nan

>  <ref>  (1648) 
Chem Ber 65: 175, 1668 (1932)

>  <cas#>  (1648) 
436-32-8

>  <source>  (1648) 
Usnea spp

>  <status>  (1648) 
undetermined activity

>  <tradename>  (1648) 
nan

>  <SMILES>  (1648) 
COc1c(C)c(OC)c(C(=O)Oc2cc(C)c(C(=O)O)c(O)c2C)c(C)c1

>  <standardized_failed>  (1648) 
False

$$$$

     RDKit          2D

 17 17  0  0  0  0  0  0  0  0999 V2000
    5.7375   -3.7292    0.0000 C   0  0  0  0  0  0  0  0  0  0  0  0
    6.4500   -4.1417    0.0000 C   0  0  0  0  0  0  0  0  0  0  0  0
    6.4500   -4.9750    0.0000 C   0  0  0  0  0  0  0  0  0  0  0  0
    5.0167   -4.1500    0.0000 O   0  0  0  0  0  0  0  0  0  0  0  0
    5.7292   -5.3875    0.0000 C   0  0  0  0  0  0  0  0  0  0  0  0
    5.0167   -4.9667    0.0000 C   0  0  0  0  0  0  0  0  0  0  0  0
    5.7375   -2.9125    0.0000 O   0  0  0  0  0  0  0  0  0  0  0  0
    7.1625   -1.2667    0.0000 N   0  0  0  0  0  0  0  0  0  0  0  0
    6.4500   -1.6750    0.0000 C   0  0  0  0  0  0  0  0  0  0  0  0
    5.7375   -2.0875    0.0000 C   0  0  0  0  0  0  0  0  0  0  0  0
    7.1667   -3.7375    0.0000 O   0  0  0  0  0  0  0  0  0  0  0  0
    7.1625   -5.3875    0.0000 O   0  0  0  0  0  0  0  0  0  0  0  0
    5.7292   -6.2042    0.0000 O   0  0  0  0  0  0  0  0  0  0  0  0
    4.3042   -5.3792    0.0000 C   0  0  0  0  0  0  0  0  0  0  0  0
    4.4542   -6.1917    0.0000 O   0  0  0  0  0  0  0  0  0  0  0  0
    5.7292   -1.2625    0.0000 C   0  0  0  0  0  0  0  0  0  0  0  0
    4.9125   -2.0875    0.0000 C   0  0  0  0  0  0  0  0  0  0  0  0
  2  1  1  0
  3  2  1  0
  4  1  1  0
  5  6  1  0
  6  4  1  0
  1  7  1  1
  8  9  3  0
  9 10  1  0
 10  7  1  0
  2 11  1  6
  3 12  1  1
  5 13  1  6
  6 14  1  1
 15 14  1  0
 16 10  1  0
 17 10  1  0
  5  3  1  0
M  END
>  <ID>  (1649) 


>  <MOLENAME>  (1649) 
LINAMARIN

>  <therap>  (1649) 
nan

>  <ref>  (1649) 
Phytochemistry 4: 127 (1965)

>  <cas#>  (1649) 
554-35-8

>  <source>  (1649) 
Linum usitatissimum, Manihot utilissimus

>  <status>  (1649) 
undetermined activity

>  <tradename>  (1649) 
nan

>  <SMILES>  (1649) 
CC(C)(C#N)O[C@@H]1O[C@H](CO)[C@@H](O)[C@H](O)[C@H]1O

>  <standardized_failed>  (1649) 
False

$$$$

     RDKit          2D

 16 17  0  0  0  0  0  0  0  0999 V2000
    6.9167   -3.9250    0.0000 C   0  0  0  0  0  0  0  0  0  0  0  0
    6.2000   -4.3375    0.0000 N   0  0  0  0  0  0  0  0  0  0  0  0
    6.9167   -3.1000    0.0000 C   0  0  0  0  0  0  0  0  0  0  0  0
    6.2000   -2.6875    0.0000 N   0  0  0  0  0  0  0  0  0  0  0  0
    5.4875   -3.9250    0.0000 C   0  0  0  0  0  0  0  0  0  0  0  0
    5.4875   -3.1000    0.0000 C   0  0  0  0  0  0  0  0  0  0  0  0
    7.6375   -4.3417    0.0000 C   0  0  0  0  0  0  0  0  0  0  0  0
    4.7750   -4.3375    0.0000 C   0  0  0  0  0  0  0  0  0  0  0  0
    4.7750   -2.6875    0.0000 C   0  0  0  0  0  0  0  0  0  0  0  0
    4.0542   -3.9250    0.0000 C   0  0  0  0  0  0  0  0  0  0  0  0
    4.0542   -3.1000    0.0000 C   0  0  0  0  0  0  0  0  0  0  0  0
    7.6292   -5.1750    0.0000 O   0  0  0  0  0  0  0  0  0  0  0  0
    7.6375   -2.6875    0.0000 O   0  0  0  0  0  0  0  0  0  0  0  0
    3.3375   -4.3417    0.0000 Cl  0  0  0  0  0  0  0  0  0  0  0  0
    3.3375   -2.6875    0.0000 Cl  0  0  0  0  0  0  0  0  0  0  0  0
    8.3500   -3.9292    0.0000 O   0  0  0  0  0  0  0  0  0  0  0  0
  2  1  2  0
  3  1  1  0
  4  3  2  0
  5  2  1  0
  6  4  1  0
  7  1  1  0
  8  5  2  0
  9  6  2  0
 10  8  1  0
 11  9  1  0
 12  7  2  0
 13  3  1  0
 14 10  1  0
 15 11  1  0
 16  7  1  0
  5  6  1  0
 10 11  2  0
M  END
>  <ID>  (1650) 


>  <MOLENAME>  (1650) 
6.7-DICHLORO-3-HYDROXY-2-QUINOXALINECARBOXYLIC ACID

>  <therap>  (1650) 
NMDA and kainate receptor antagonist

>  <ref>  (1650) 
Neurosci Lett 91: 194 (1988)

>  <cas#>  (1650) 
nan

>  <source>  (1650) 
synthetic

>  <status>  (1650) 
experimental

>  <tradename>  (1650) 
nan

>  <SMILES>  (1650) 
O=C(O)c1nc2cc(Cl)c(Cl)cc2nc1O

>  <standardized_failed>  (1650) 
False

$$$$

     RDKit          2D

 27 32  0  0  0  0  0  0  0  0999 V2000
    6.2750   -4.8917    0.0000 C   0  0  0  0  0  0  0  0  0  0  0  0
    7.0917   -4.9667    0.0000 C   0  0  0  0  0  0  0  0  0  0  0  0
    6.1000   -4.0792    0.0000 C   0  0  0  0  0  0  0  0  0  0  0  0
    6.8125   -3.6667    0.0000 C   0  0  0  0  0  0  0  0  0  0  0  0
    7.4292   -4.2292    0.0000 O   0  0  0  0  0  0  0  0  0  0  0  0
    6.1000   -2.4292    0.0000 C   0  0  0  0  0  0  0  0  0  0  0  0
    6.8125   -2.8417    0.0000 C   0  0  0  0  0  0  0  0  0  0  0  0
    5.6625   -5.4417    0.0000 C   0  0  0  0  0  0  0  0  0  0  0  0
    7.5292   -2.4292    0.0000 N   0  0  0  0  0  0  0  0  0  0  0  0
    6.1000   -1.6042    0.0000 C   0  0  0  0  0  0  0  0  0  0  0  0
    5.3875   -2.8417    0.0000 C   0  0  0  0  0  0  0  0  0  0  0  0
    4.6667   -2.4292    0.0000 C   0  0  0  0  0  0  0  0  0  0  0  0
    4.6667   -1.6042    0.0000 C   0  0  0  0  0  0  0  0  0  0  0  0
    5.3125   -3.8292    0.0000 C   0  0  0  0  0  0  0  0  0  0  0  0
    5.3875   -1.1917    0.0000 C   0  0  0  0  0  0  0  0  0  0  0  0
    4.8792   -5.1917    0.0000 C   0  0  0  0  0  0  0  0  0  0  0  0
    5.6625   -6.2667    0.0000 O   0  0  0  0  0  0  0  0  0  0  0  0
    7.5167   -5.6792    0.0000 O   0  0  0  0  0  0  0  0  0  0  0  0
    3.8875   -2.6792    0.0000 O   0  0  0  0  0  0  0  0  0  0  0  0
    3.8875   -1.3500    0.0000 O   0  0  0  0  0  0  0  0  0  0  0  0
    4.3917   -5.8625    0.0000 O   0  0  0  0  0  0  0  0  0  0  0  0
    4.8792   -6.5167    0.0000 C   0  0  0  0  0  0  0  0  0  0  0  0
    3.4042   -2.0125    0.0000 C   0  0  0  0  0  0  0  0  0  0  0  0
    7.5292   -1.6042    0.0000 C   0  0  0  0  0  0  0  0  0  0  0  0
    6.8125   -1.1917    0.0000 C   0  0  0  0  0  0  0  0  0  0  0  0
    4.7042   -4.3792    0.0000 C   0  0  0  0  0  0  0  0  0  0  0  0
    8.2500   -2.8417    0.0000 C   0  0  0  0  0  0  0  0  0  0  0  0
  2  1  1  0
  3  1  2  0
  4  3  1  0
  5  2  1  0
  6  7  1  0
  7  4  1  6
  8  1  1  0
  7  9  1  0
 10  6  2  0
 11  6  1  0
 12 11  2  0
 13 12  1  0
 14  3  1  0
 15 10  1  0
 16  8  2  0
 17  8  1  0
 18  2  2  0
 19 12  1  0
 20 13  1  0
 21 16  1  0
 22 17  1  0
 23 19  1  0
 24  9  1  0
 25 24  1  0
 26 16  1  0
 27  9  1  0
  5  4  1  0
 21 22  1  0
 14 26  2  0
 10 25  1  0
 15 13  2  0
 20 23  1  0
M  END
>  <ID>  (1651) 


>  <MOLENAME>  (1651) 
BICUCULLINE (+)

>  <therap>  (1651) 
GABAa antagonist

>  <ref>  (1651) 
Coll Czech Chem Commun, 29, 2328 (1964); Nature 226:1222 (1970); Brain Res 102:283 (1976); Life Sci 36:1295 (1985); TiPS 10:407 (1989)

>  <cas#>  (1651) 
485-49-4

>  <source>  (1651) 
Dicentra cucullaria, Corydalis spp

>  <status>  (1651) 
experimental

>  <tradename>  (1651) 
nan

>  <SMILES>  (1651) 
CN1CCc2c(cc3OCOc3c2)[C@H]1C1OC(=O)c2c1ccc1c2OCO1

>  <standardized_failed>  (1651) 
False

$$$$

     RDKit          2D

 11 11  0  0  0  0  0  0  0  0999 V2000
    4.5167   -3.1917    0.0000 C   0  0  0  0  0  0  0  0  0  0  0  0
    4.1042   -3.9042    0.0000 C   0  0  0  0  0  0  0  0  0  0  0  0
    5.3417   -3.1917    0.0000 C   0  0  0  0  0  0  0  0  0  0  0  0
    4.5167   -4.6167    0.0000 C   0  0  0  0  0  0  0  0  0  0  0  0
    5.7542   -3.9042    0.0000 C   0  0  0  0  0  0  0  0  0  0  0  0
    4.1042   -2.4792    0.0000 O   0  0  0  0  0  0  0  0  0  0  0  0
    5.3417   -4.6167    0.0000 C   0  0  0  0  0  0  0  0  0  0  0  0
    3.2792   -3.9042    0.0000 O   0  0  0  0  0  0  0  0  0  0  0  0
    7.8167   -4.6167    0.0000 N   0  0  0  0  0  0  0  0  0  0  0  0
    6.9917   -4.6167    0.0000 C   0  0  0  0  0  0  0  0  0  0  0  0
    6.5792   -3.9042    0.0000 C   0  0  0  0  0  0  0  0  0  0  0  0
  2  1  2  0
  3  1  1  0
  4  2  1  0
  5  3  2  0
  6  1  1  0
  7  5  1  0
  8  2  1  0
  9 10  1  0
 10 11  1  0
 11  5  1  0
  4  7  2  0
M  END
>  <ID>  (1652) 


>  <MOLENAME>  (1652) 
3-HYDROXYTYRAMINE

>  <therap>  (1652) 
dopaminergic

>  <ref>  (1652) 
Am J Physiol 267:R628 (1994); FEBS Lett 325:215 (1993)

>  <cas#>  (1652) 
62-31-7

>  <source>  (1652) 
synthetic

>  <status>  (1652) 
experimental

>  <tradename>  (1652) 
nan

>  <SMILES>  (1652) 
NCCc1cc(O)c(O)cc1

>  <standardized_failed>  (1652) 
False

$$$$

     RDKit          2D

 15 16  0  0  0  0  0  0  0  0999 V2000
    3.7875   -2.5667    0.0000 C   0  0  0  0  0  0  0  0  0  0  0  0
    3.0750   -2.9875    0.0000 C   0  0  0  0  0  0  0  0  0  0  0  0
    3.7917   -1.7417    0.0000 C   0  0  0  0  0  0  0  0  0  0  0  0
    2.3625   -2.5750    0.0000 C   0  0  0  0  0  0  0  0  0  0  0  0
    3.0750   -1.3292    0.0000 C   0  0  0  0  0  0  0  0  0  0  0  0
    2.3625   -1.7500    0.0000 C   0  0  0  0  0  0  0  0  0  0  0  0
    5.2167   -2.5750    0.0000 N   0  0  0  0  0  0  0  0  0  0  0  0
    4.5042   -2.9875    0.0000 C   0  0  0  0  0  0  0  0  0  0  0  0
    5.2167   -1.7417    0.0000 C   0  0  0  0  0  0  0  0  0  0  0  0
    1.6417   -2.9875    0.0000 O   0  0  0  0  0  0  0  0  0  0  0  0
    1.6500   -1.3375    0.0000 O   0  0  0  0  0  0  0  0  0  0  0  0
    4.5042   -1.3292    0.0000 C   0  0  0  0  0  0  0  0  0  0  0  0
    4.5000   -3.8125    0.0000 C   0  0  0  0  0  0  0  0  0  0  0  0
    0.9292   -2.5750    0.0000 C   0  0  0  0  0  0  0  0  0  0  0  0
    1.6500   -0.5125    0.0000 C   0  0  0  0  0  0  0  0  0  0  0  0
  2  1  2  0
  3  1  1  0
  4  2  1  0
  5  3  2  0
  6  5  1  0
  7  8  1  0
  8  1  1  0
  9  7  1  0
 10  4  1  0
 11  6  1  0
 12  3  1  0
 13  8  1  0
 14 10  1  0
 15 11  1  0
 12  9  1  0
  4  6  2  0
M  END
>  <ID>  (1653) 


>  <MOLENAME>  (1653) 
SALSOLIDINE

>  <therap>  (1653) 
antihypertensive

>  <ref>  (1653) 
Bull Soc Chim France 4L1265 (1937); Phytochemistry 12:193 (1973); 13:1628 (1974); J Nat Prod 39:175,197 (1976); 45:277 (1982)

>  <cas#>  (1653) 
493-48-1

>  <source>  (1653) 
Salsola Richteri

>  <status>  (1653) 
experimental

>  <tradename>  (1653) 
nan

>  <SMILES>  (1653) 
COc1c(OC)cc2c(c1)CCNC2C

>  <standardized_failed>  (1653) 
False

$$$$

     RDKit          2D

 34 38  0  0  0  0  0  0  0  0999 V2000
    3.6417   -2.8792    0.0000 C   0  0  0  0  0  0  0  0  0  0  0  0
    3.6542   -2.0542    0.0000 C   0  0  0  0  0  0  0  0  0  0  0  0
    2.9292   -3.2875    0.0000 C   0  0  0  0  0  0  0  0  0  0  0  0
    1.5042   -3.2792    0.0000 C   0  0  0  0  0  0  0  0  0  0  0  0
    5.0750   -2.0875    0.0000 C   0  0  0  0  0  0  0  0  0  0  0  0
    4.3667   -1.6542    0.0000 C   0  0  0  0  0  0  0  0  0  0  0  0
    2.2167   -2.8667    0.0000 C   0  0  0  0  0  0  0  0  0  0  0  0
    1.5042   -4.1042    0.0000 C   0  0  0  0  0  0  0  0  0  0  0  0
    0.7917   -4.5042    0.0000 C   0  0  0  0  0  0  0  0  0  0  0  0
    2.9500   -1.6375    0.0000 C   0  0  0  0  0  0  0  0  0  0  0  0
    5.7875   -2.5000    0.0000 C   0  0  0  0  0  0  0  0  0  0  0  0
    4.3417   -3.3000    0.0000 C   0  0  0  0  0  0  0  0  0  0  0  0
    2.9292   -4.1042    0.0000 C   0  0  0  0  0  0  0  0  0  0  0  0
    2.2250   -2.0417    0.0000 C   0  0  0  0  0  0  0  0  0  0  0  0
    5.0625   -2.9042    0.0000 C   0  0  0  0  0  0  0  0  0  0  0  0
    0.7917   -2.8625    0.0000 C   0  0  0  0  0  0  0  0  0  0  0  0
    2.2167   -4.5167    0.0000 C   0  0  0  0  0  0  0  0  0  0  0  0
    5.7917   -1.6917    0.0000 C   0  0  0  0  0  0  0  0  0  0  0  0
    4.3875   -0.8375    0.0000 C   0  0  0  0  0  0  0  0  0  0  0  0
    0.0875   -4.1042    0.0000 C   0  0  0  0  0  0  0  0  0  0  0  0
    5.1125   -0.4417    0.0000 C   0  0  0  0  0  0  0  0  0  0  0  0
    5.7792   -3.3250    0.0000 O   0  0  0  0  0  0  0  0  0  0  0  0
    0.0875   -3.2792    0.0000 C   0  0  0  0  0  0  0  0  0  0  0  0
    5.8167   -0.8667    0.0000 C   0  0  0  0  0  0  0  0  0  0  0  0
    1.3792   -5.0917    0.0000 C   0  0  0  0  0  0  0  0  0  0  0  0
    3.6375   -3.7042    0.0000 C   0  0  0  0  0  0  0  0  0  0  0  0
    6.5000   -2.0875    0.0000 O   0  0  0  0  0  0  0  0  0  0  0  0
    2.9250   -2.4625    0.0000 C   0  0  0  0  0  0  0  0  0  0  0  0
    1.5042   -2.4542    0.0000 C   0  0  0  0  0  0  0  0  0  0  0  0
    0.2042   -5.0917    0.0000 C   0  0  0  0  0  0  0  0  0  0  0  0
   -0.6333   -4.5042    0.0000 O   0  0  0  0  0  0  0  0  0  0  0  0
    1.1625   -5.8917    0.0000 O   0  0  0  0  0  0  0  0  0  0  0  0
    4.5250    0.1458    0.0000 C   0  0  0  0  0  0  0  0  0  0  0  0
    5.6917    0.1458    0.0000 C   0  0  0  0  0  0  0  0  0  0  0  0
  2  1  1  0
  3  1  1  0
  4  7  1  0
  5 15  1  0
  2  6  1  0
  7  3  1  0
  8 17  1  0
  9  8  1  0
 10  2  2  0
  5 11  1  1
 12  1  1  0
 13  3  1  0
 14  7  1  0
 15 12  1  0
 16  4  1  0
 17 13  1  0
 18  5  1  0
 19  6  1  0
 20  9  1  0
 21 19  1  0
 22 11  2  0
 23 16  1  0
 24 18  1  0
  9 25  1  0
  1 26  1  6
 27 11  1  0
  3 28  1  1
  4 29  1  1
  9 30  1  1
 20 31  1  1
 32 25  1  0
 33 21  1  0
 34 21  1  0
  6  5  1  0
 10 14  1  0
  4  8  1  0
 21 24  1  0
 23 20  1  0
M  END
>  <ID>  (1654) 


>  <MOLENAME>  (1654) 
HEDERAGENIN

>  <therap>  (1654) 
nan

>  <ref>  (1654) 
nan

>  <cas#>  (1654) 
465-99-6

>  <source>  (1654) 
Clematis, Hedera spp

>  <status>  (1654) 
undetermined activity

>  <tradename>  (1654) 
nan

>  <SMILES>  (1654) 
CC1(C)CC[C@]2(C(=O)O)CC[C@]3(C)C(=CCC4[C@@]5(C)CC[C@H](O)[C@@](C)(CO)C5CC[C@]43C)C2C1

>  <standardized_failed>  (1654) 
False

$$$$

     RDKit          2D

 29 33  0  0  0  0  0  0  0  0999 V2000
    3.9417    0.0458    0.0000 C   0  0  0  0  0  0  0  0  0  0  0  0
    3.2250   -1.1792    0.0000 C   0  0  0  0  0  0  0  0  0  0  0  0
    2.5042   -0.7667    0.0000 C   0  0  0  0  0  0  0  0  0  0  0  0
    4.6417    0.4708    0.0000 C   0  0  0  0  0  0  0  0  0  0  0  0
    3.9417   -0.7667    0.0000 C   0  0  0  0  0  0  0  0  0  0  0  0
    1.7875   -1.1792    0.0000 C   0  0  0  0  0  0  0  0  0  0  0  0
    3.2250    0.4708    0.0000 O   0  0  0  0  0  0  0  0  0  0  0  0
    4.8042    1.2708    0.0000 C   0  0  0  0  0  0  0  0  0  0  0  0
    5.6250    1.3708    0.0000 C   0  0  0  0  0  0  0  0  0  0  0  0
    2.5042    0.0458    0.0000 C   0  0  0  0  0  0  0  0  0  0  0  0
    5.9667    0.6208    0.0000 O   0  0  0  0  0  0  0  0  0  0  0  0
    1.0667   -0.7667    0.0000 C   0  0  0  0  0  0  0  0  0  0  0  0
    5.3667    0.0458    0.0000 C   0  0  0  0  0  0  0  0  0  0  0  0
    1.7917   -1.9917    0.0000 C   0  0  0  0  0  0  0  0  0  0  0  0
    1.0667    0.0458    0.0000 O   0  0  0  0  0  0  0  0  0  0  0  0
    0.3667   -1.1792    0.0000 C   0  0  0  0  0  0  0  0  0  0  0  0
    4.6417   -1.1792    0.0000 C   0  0  0  0  0  0  0  0  0  0  0  0
    1.0875   -2.4167    0.0000 C   0  0  0  0  0  0  0  0  0  0  0  0
    0.3667   -2.0292    0.0000 C   0  0  0  0  0  0  0  0  0  0  0  0
    1.7875    0.4708    0.0000 C   0  0  0  0  0  0  0  0  0  0  0  0
    3.2250   -2.0292    0.0000 O   0  0  0  0  0  0  0  0  0  0  0  0
    5.3667   -0.7667    0.0000 C   0  0  0  0  0  0  0  0  0  0  0  0
    6.0042    2.1208    0.0000 C   0  0  0  0  0  0  0  0  0  0  0  0
    1.0875   -3.2542    0.0000 O   0  0  0  0  0  0  0  0  0  0  0  0
   -0.3583   -2.4792    0.0000 O   0  0  0  0  0  0  0  0  0  0  0  0
    6.8250    2.1208    0.0000 C   0  0  0  0  0  0  0  0  0  0  0  0
    5.5667    2.8083    0.0000 C   0  0  0  0  0  0  0  0  0  0  0  0
    0.3875   -3.6417    0.0000 C   0  0  0  0  0  0  0  0  0  0  0  0
   -1.0958   -2.0792    0.0000 C   0  0  0  0  0  0  0  0  0  0  0  0
  2  5  1  0
  3 10  1  0
  4  1  2  0
  5  1  1  0
  6  3  1  0
  7  1  1  0
  8  4  1  0
  9  8  2  0
 10  7  1  0
 11 13  1  0
 12 15  1  0
 13  4  1  0
 14  6  2  0
 15 20  1  0
 16 12  2  0
 17  5  2  0
 18 14  1  0
 19 16  1  0
 10 20  1  1
 21  2  2  0
 22 17  1  0
 23  9  1  0
 24 18  1  0
 25 19  1  0
 26 23  1  0
 27 23  1  0
 28 24  1  0
 29 25  1  0
  3  2  1  1
 13 22  2  0
 11  9  1  0
  6 12  1  0
 18 19  2  0
M  END
>  <ID>  (1655) 


>  <MOLENAME>  (1655) 
ISOROTENONE

>  <therap>  (1655) 
nan

>  <ref>  (1655) 
Chem Rev 12, 181 (1933); J Chem Soc 1966:749

>  <cas#>  (1655) 
nan

>  <source>  (1655) 
semisynthetic

>  <status>  (1655) 
undetermined activity

>  <tradename>  (1655) 
nan

>  <SMILES>  (1655) 
COc1c(OC)cc2c(c1)OC[C@H]1Oc3c4cc(C(C)C)oc4ccc3C(=O)[C@@H]21

>  <standardized_failed>  (1655) 
False

$$$$

     RDKit          2D

 18 19  0  0  0  0  0  0  0  0999 V2000
    6.4917   -3.7417    0.0000 C   0  0  0  0  0  0  0  0  0  0  0  0
    5.7792   -2.5042    0.0000 C   0  0  0  0  0  0  0  0  0  0  0  0
    5.7792   -4.1542    0.0000 C   0  0  0  0  0  0  0  0  0  0  0  0
    6.4917   -2.9167    0.0000 C   0  0  0  0  0  0  0  0  0  0  0  0
    5.0625   -2.9167    0.0000 C   0  0  0  0  0  0  0  0  0  0  0  0
    5.0625   -3.7417    0.0000 C   0  0  0  0  0  0  0  0  0  0  0  0
    7.2042   -4.1542    0.0000 C   0  0  0  0  0  0  0  0  0  0  0  0
    5.7792   -1.6792    0.0000 C   0  0  0  0  0  0  0  0  0  0  0  0
    5.7792   -4.9875    0.0000 C   0  0  0  0  0  0  0  0  0  0  0  0
    7.2042   -4.9875    0.0000 O   0  0  0  0  0  0  0  0  0  0  0  0
    4.3417   -2.4917    0.0000 O   0  0  0  0  0  0  0  0  0  0  0  0
    6.4917   -5.4000    0.0000 C   0  0  0  0  0  0  0  0  0  0  0  0
    5.0625   -1.2667    0.0000 O   0  0  0  0  0  0  0  0  0  0  0  0
    7.2125   -2.4917    0.0000 O   0  0  0  0  0  0  0  0  0  0  0  0
    4.3417   -4.1667    0.0000 C   0  0  0  0  0  0  0  0  0  0  0  0
    6.4917   -1.2667    0.0000 O   0  0  0  0  0  0  0  0  0  0  0  0
    5.0542   -5.4042    0.0000 C   0  0  0  0  0  0  0  0  0  0  0  0
    6.4917   -6.2250    0.0000 C   0  0  0  0  0  0  0  0  0  0  0  0
  2  4  2  0
  3  1  1  0
  4  1  1  0
  5  2  1  0
  6  3  2  0
  7  1  2  0
  8  2  1  0
  9  3  1  0
 10  7  1  0
 11  5  2  0
 12 10  1  0
 13  8  2  0
 14  4  1  0
 15  6  1  0
 16  8  1  0
  9 17  1  1
 12 18  1  6
  6  5  1  0
  9 12  1  0
M  END
>  <ID>  (1656) 


>  <MOLENAME>  (1656) 
CITRININ

>  <therap>  (1656) 
antibacterial

>  <ref>  (1656) 
J Chem Soc 1963: 3777

>  <cas#>  (1656) 
518-75-2

>  <source>  (1656) 
Penicillium citrinum

>  <status>  (1656) 
experimental

>  <tradename>  (1656) 
nan

>  <SMILES>  (1656) 
CC1=C2C(=CO[C@H](C)[C@H]2C)C(O)=C(C(=O)O)C1=O

>  <standardized_failed>  (1656) 
False

$$$$

     RDKit          2D

 27 28  0  0  0  0  0  0  0  0999 V2000
    4.3667   -3.2792    0.0000 C   0  0  0  0  0  0  0  0  0  0  0  0
    7.9542   -2.0125    0.0000 C   0  0  0  0  0  0  0  0  0  0  0  0
    5.0917   -2.8542    0.0000 C   0  0  0  0  0  0  0  0  0  0  0  0
    4.3667   -4.1042    0.0000 C   0  0  0  0  0  0  0  0  0  0  0  0
    7.2417   -1.6000    0.0000 C   0  0  0  0  0  0  0  0  0  0  0  0
    3.6542   -4.5167    0.0000 C   0  0  0  0  0  0  0  0  0  0  0  0
    6.5292   -2.0125    0.0000 C   0  0  0  0  0  0  0  0  0  0  0  0
    6.5250   -2.8417    0.0000 C   0  0  0  0  0  0  0  0  0  0  0  0
    3.6542   -2.8667    0.0000 C   0  0  0  0  0  0  0  0  0  0  0  0
    7.9542   -2.8417    0.0000 C   0  0  0  0  0  0  0  0  0  0  0  0
    5.8167   -3.2625    0.0000 O   0  0  0  0  0  0  0  0  0  0  0  0
    2.9417   -4.1042    0.0000 C   0  0  0  0  0  0  0  0  0  0  0  0
    8.6792   -1.5875    0.0000 C   0  0  0  0  0  0  0  0  0  0  0  0
    7.2417   -3.2542    0.0000 C   0  0  0  0  0  0  0  0  0  0  0  0
    2.9417   -3.2792    0.0000 C   0  0  0  0  0  0  0  0  0  0  0  0
    5.0792   -2.0250    0.0000 O   0  0  0  0  0  0  0  0  0  0  0  0
    3.6542   -5.3417    0.0000 C   0  0  0  0  0  0  0  0  0  0  0  0
    8.6667   -0.7542    0.0000 O   0  0  0  0  0  0  0  0  0  0  0  0
    5.0917   -4.5292    0.0000 O   0  0  0  0  0  0  0  0  0  0  0  0
    7.2417   -0.7750    0.0000 O   0  0  0  0  0  0  0  0  0  0  0  0
    4.3667   -5.7542    0.0000 O   0  0  0  0  0  0  0  0  0  0  0  0
    2.2167   -4.5292    0.0000 O   0  0  0  0  0  0  0  0  0  0  0  0
    9.4042   -1.9917    0.0000 O   0  0  0  0  0  0  0  0  0  0  0  0
    5.8042   -1.5917    0.0000 C   0  0  0  0  0  0  0  0  0  0  0  0
    3.6542   -2.0417    0.0000 C   0  0  0  0  0  0  0  0  0  0  0  0
    8.6792   -3.2667    0.0000 C   0  0  0  0  0  0  0  0  0  0  0  0
    9.4167   -2.8250    0.0000 C   0  0  0  0  0  0  0  0  0  0  0  0
  2 10  2  0
  3  1  1  0
  4  1  2  0
  5  7  2  0
  6  4  1  0
  7  8  1  0
  8 11  1  0
  9  1  1  0
 10 14  1  0
 11  3  1  0
 12 15  1  0
 13  2  1  0
 14  8  2  0
 15  9  2  0
 16  3  2  0
 17  6  1  0
 18 13  2  0
 19  4  1  0
 20  5  1  0
 21 17  2  0
 22 12  1  0
 23 13  1  0
 24  7  1  0
 25  9  1  0
 26 10  1  0
 27 23  1  0
 12  6  2  0
  2  5  1  0
M  END
>  <ID>  (1657) 


>  <MOLENAME>  (1657) 
ATRANORIN

>  <therap>  (1657) 
nan

>  <ref>  (1657) 
Helv Chim Acta 9:650 (1926); 17:1319 (1934); J Chem Soc 1933:130; Chem Pharm Bull 24:2340 (1976)

>  <cas#>  (1657) 
479-20-9

>  <source>  (1657) 
Common lichen metabolite

>  <status>  (1657) 
undetermined activity

>  <tradename>  (1657) 
nan

>  <SMILES>  (1657) 
COC(=O)c1c(C)cc(OC(=O)c2c(O)c(C=O)c(O)cc2C)c(C)c1O

>  <standardized_failed>  (1657) 
False

$$$$

     RDKit          2D

 38 43  0  0  0  0  0  0  0  0999 V2000
    7.8917   -2.2667    0.0000 C   0  0  0  0  0  0  0  0  0  0  0  0
    8.7667   -2.7417    0.0000 C   0  0  0  0  0  0  0  0  0  0  0  0
    7.0167   -2.7417    0.0000 C   0  0  0  0  0  0  0  0  0  0  0  0
    7.8917   -1.2417    0.0000 C   0  0  0  0  0  0  0  0  0  0  0  0
    7.9042   -3.3417    0.0000 O   0  0  0  0  0  0  0  0  0  0  0  0
    5.2292   -2.7417    0.0000 C   0  0  0  0  0  0  0  0  0  0  0  0
    6.1167   -2.2667    0.0000 C   0  0  0  0  0  0  0  0  0  0  0  0
    9.6292   -2.2667    0.0000 C   0  0  0  0  0  0  0  0  0  0  0  0
    5.2292   -3.7667    0.0000 C   0  0  0  0  0  0  0  0  0  0  0  0
    8.7667   -0.7167    0.0000 C   0  0  0  0  0  0  0  0  0  0  0  0
    9.6292   -1.2417    0.0000 O   0  0  0  0  0  0  0  0  0  0  0  0
    7.0167   -3.7417    0.0000 C   0  0  0  0  0  0  0  0  0  0  0  0
    4.3667   -4.2917    0.0000 C   0  0  0  0  0  0  0  0  0  0  0  0
    8.7625    0.1083    0.0000 C   0  0  0  0  0  0  0  0  0  0  0  0
    6.1542   -4.2417    0.0000 C   0  0  0  0  0  0  0  0  0  0  0  0
    7.0167   -0.7167    0.0000 C   0  0  0  0  0  0  0  0  0  0  0  0
    3.4792   -3.7667    0.0000 C   0  0  0  0  0  0  0  0  0  0  0  0
    6.1167   -1.2417    0.0000 C   0  0  0  0  0  0  0  0  0  0  0  0
    4.3667   -2.2667    0.0000 C   0  0  0  0  0  0  0  0  0  0  0  0
    7.9167   -4.1917    0.0000 O   0  0  0  0  0  0  0  0  0  0  0  0
    2.5792   -4.2792    0.0000 O   0  0  0  0  0  0  0  0  0  0  0  0
    7.9042   -5.1667    0.0000 C   0  0  0  0  0  0  0  0  0  0  0  0
    2.5792   -5.3042    0.0000 C   0  0  0  0  0  0  0  0  0  0  0  0
   10.5167   -2.7792    0.0000 O   0  0  0  0  0  0  0  0  0  0  0  0
    9.4417    0.8333    0.0000 C   0  0  0  0  0  0  0  0  0  0  0  0
    7.8542    0.5583    0.0000 C   0  0  0  0  0  0  0  0  0  0  0  0
    8.9875    1.7333    0.0000 O   0  0  0  0  0  0  0  0  0  0  0  0
    3.4792   -2.7417    0.0000 C   0  0  0  0  0  0  0  0  0  0  0  0
    7.9875    1.5333    0.0000 C   0  0  0  0  0  0  0  0  0  0  0  0
    1.7292   -5.8667    0.0000 O   0  0  0  0  0  0  0  0  0  0  0  0
    8.8417   -5.7667    0.0000 O   0  0  0  0  0  0  0  0  0  0  0  0
    7.0167   -1.5292    0.0000 C   0  0  0  0  0  0  0  0  0  0  0  0
    7.8917   -0.2167    0.0000 C   0  0  0  0  0  0  0  0  0  0  0  0
    5.2292   -1.6042    0.0000 C   0  0  0  0  0  0  0  0  0  0  0  0
    5.2292   -4.8292    0.0000 C   0  0  0  0  0  0  0  0  0  0  0  0
    3.4792   -4.8292    0.0000 C   0  0  0  0  0  0  0  0  0  0  0  0
    3.4292   -5.8667    0.0000 C   0  0  0  0  0  0  0  0  0  0  0  0
    7.1417   -5.7042    0.0000 C   0  0  0  0  0  0  0  0  0  0  0  0
  2  1  1  0
  3  1  1  0
  4  1  1  0
  1  5  1  1
  6  7  1  0
  7  3  1  0
  8  2  1  0
  9 15  1  0
 10  4  1  0
 10 11  1  6
 12  3  1  0
 13  9  1  0
 10 14  1  0
 15 12  1  0
 16  4  1  0
 17 13  1  0
 18 16  1  0
 19  6  1  0
 12 20  1  6
 17 21  1  6
 22 20  1  0
 23 21  1  0
 24  8  2  0
 25 14  2  0
 26 14  1  0
 27 25  1  0
 28 19  1  0
 29 26  2  0
 30 23  2  0
 31 22  2  0
  3 32  1  1
  4 33  1  6
  6 34  1  1
 35 13  1  0
 36 13  1  0
 37 23  1  0
 38 22  1  0
  2  5  1  1
 18  7  1  0
 11  8  1  0
  9  6  1  0
 29 27  1  0
 28 17  1  0
M  END
>  <ID>  (1658) 


>  <MOLENAME>  (1658) 
3-ACETYLGEDUNOL

>  <therap>  (1658) 
nan

>  <ref>  (1658) 
nan

>  <cas#>  (1658) 
nan

>  <source>  (1658) 
Meliaceae spp

>  <status>  (1658) 
undetermined activity

>  <tradename>  (1658) 
nan

>  <SMILES>  (1658) 
CC(=O)O[C@@H]1CC[C@@]2(C)C(C[C@@H](OC(C)=O)[C@]3(C)C2CC[C@@]2(C)[C@H](c4cocc4)OC(=O)[C@H]4O[C@]423)C1(C)C

>  <standardized_failed>  (1658) 
False

$$$$

     RDKit          2D

 34 38  0  0  0  0  0  0  0  0999 V2000
    6.3667   -4.7792    0.0000 C   0  0  0  0  0  0  0  0  0  0  0  0
    4.5292   -4.8667    0.0000 C   0  0  0  0  0  0  0  0  0  0  0  0
    7.0792   -4.3667    0.0000 C   0  0  0  0  0  0  0  0  0  0  0  0
    5.0042   -5.4417    0.0000 C   0  0  0  0  0  0  0  0  0  0  0  0
    4.4917   -6.0792    0.0000 C   0  0  0  0  0  0  0  0  0  0  0  0
    7.0792   -3.5417    0.0000 C   0  0  0  0  0  0  0  0  0  0  0  0
    5.6542   -4.3667    0.0000 C   0  0  0  0  0  0  0  0  0  0  0  0
    3.8292   -4.4292    0.0000 C   0  0  0  0  0  0  0  0  0  0  0  0
    3.0750   -5.6417    0.0000 C   0  0  0  0  0  0  0  0  0  0  0  0
    3.1042   -4.8167    0.0000 C   0  0  0  0  0  0  0  0  0  0  0  0
    7.7917   -3.1292    0.0000 C   0  0  0  0  0  0  0  0  0  0  0  0
    5.8042   -6.0792    0.0000 C   0  0  0  0  0  0  0  0  0  0  0  0
    7.7917   -4.7792    0.0000 C   0  0  0  0  0  0  0  0  0  0  0  0
    8.5125   -3.5417    0.0000 O   0  0  0  0  0  0  0  0  0  0  0  0
    7.7542   -2.3000    0.0000 C   0  0  0  0  0  0  0  0  0  0  0  0
    8.5125   -4.3667    0.0000 C   0  0  0  0  0  0  0  0  0  0  0  0
    6.3667   -3.1292    0.0000 C   0  0  0  0  0  0  0  0  0  0  0  0
    5.6542   -3.5417    0.0000 C   0  0  0  0  0  0  0  0  0  0  0  0
    3.8542   -3.6042    0.0000 C   0  0  0  0  0  0  0  0  0  0  0  0
    4.5792   -3.2167    0.0000 C   0  0  0  0  0  0  0  0  0  0  0  0
    5.6792   -5.2417    0.0000 O   0  0  0  0  0  0  0  0  0  0  0  0
    8.4375   -1.8417    0.0000 C   0  0  0  0  0  0  0  0  0  0  0  0
    2.3375   -6.0250    0.0000 O   0  0  0  0  0  0  0  0  0  0  0  0
    7.1125   -1.7875    0.0000 C   0  0  0  0  0  0  0  0  0  0  0  0
    8.2167   -1.0542    0.0000 O   0  0  0  0  0  0  0  0  0  0  0  0
    9.2292   -4.7792    0.0000 O   0  0  0  0  0  0  0  0  0  0  0  0
    7.0917   -5.1917    0.0000 O   0  0  0  0  0  0  0  0  0  0  0  0
    7.4042   -1.0167    0.0000 C   0  0  0  0  0  0  0  0  0  0  0  0
    5.2917   -3.6542    0.0000 O   0  0  0  0  0  0  0  0  0  0  0  0
    3.8042   -5.2542    0.0000 C   0  0  0  0  0  0  0  0  0  0  0  0
    7.0792   -2.7125    0.0000 C   0  0  0  0  0  0  0  0  0  0  0  0
    2.2125   -4.8292    0.0000 C   0  0  0  0  0  0  0  0  0  0  0  0
    3.1167   -3.9292    0.0000 C   0  0  0  0  0  0  0  0  0  0  0  0
    4.6042   -2.3875    0.0000 O   0  0  0  0  0  0  0  0  0  0  0  0
  2  7  1  0
  3  1  1  0
  5  4  1  0
  5 12  1  1
  6  3  1  0
  7  1  1  0
  8  2  1  0
  9  5  1  0
 10  9  1  0
 11  6  1  0
 12  1  1  0
 13  3  2  0
 14 16  1  0
 11 15  1  0
 16 13  1  0
 17 18  1  0
 18  7  1  0
  8 19  1  6
 20 19  1  0
 21  4  2  0
 22 15  2  0
 23  9  2  0
 24 15  1  0
 25 22  1  0
 26 16  2  0
  1 27  1  1
 28 24  2  0
 29 20  2  0
  2 30  1  6
  6 31  1  6
 32 10  1  0
 33 10  1  0
 34 20  1  0
  2  4  1  0
 17  6  1  0
  8 10  1  0
 11 14  1  6
 25 28  1  0
M  END
>  <ID>  (1659) 


>  <MOLENAME>  (1659) 
8-HYDROXYCARAPINIC ACID

>  <therap>  (1659) 
nan

>  <ref>  (1659) 
nan

>  <cas#>  (1659) 
nan

>  <source>  (1659) 
Meliaceae spp

>  <status>  (1659) 
undetermined activity

>  <tradename>  (1659) 
nan

>  <SMILES>  (1659) 
CC1(C)C(=O)[C@@H]2C[C@@]3(O)C4=CC(=O)O[C@@H](c5cocc5)[C@]4(C)CCC3[C@@](C)(C2=O)[C@H]1CC(=O)O

>  <standardized_failed>  (1659) 
False

$$$$

     RDKit          2D

 37 41  0  0  0  0  0  0  0  0999 V2000
   -0.6500   -5.6375    0.0000 C   0  0  0  0  0  0  0  0  0  0  0  0
    0.8375   -5.6375    0.0000 C   0  0  0  0  0  0  0  0  0  0  0  0
    1.6000   -5.1875    0.0000 C   0  0  0  0  0  0  0  0  0  0  0  0
   -0.6500   -6.5000    0.0000 C   0  0  0  0  0  0  0  0  0  0  0  0
   -1.4125   -6.9500    0.0000 C   0  0  0  0  0  0  0  0  0  0  0  0
    1.6000   -4.3167    0.0000 C   0  0  0  0  0  0  0  0  0  0  0  0
    0.1000   -5.1875    0.0000 C   0  0  0  0  0  0  0  0  0  0  0  0
   -1.4125   -5.1875    0.0000 C   0  0  0  0  0  0  0  0  0  0  0  0
   -2.1500   -6.5000    0.0000 C   0  0  0  0  0  0  0  0  0  0  0  0
   -2.1500   -5.6375    0.0000 C   0  0  0  0  0  0  0  0  0  0  0  0
    2.3500   -3.8750    0.0000 C   0  0  0  0  0  0  0  0  0  0  0  0
    0.8375   -7.3250    0.0000 C   0  0  0  0  0  0  0  0  0  0  0  0
    3.1125   -4.3167    0.0000 O   0  0  0  0  0  0  0  0  0  0  0  0
    2.3417   -3.0500    0.0000 C   0  0  0  0  0  0  0  0  0  0  0  0
    3.1125   -5.1875    0.0000 C   0  0  0  0  0  0  0  0  0  0  0  0
    0.8375   -3.8750    0.0000 C   0  0  0  0  0  0  0  0  0  0  0  0
    0.1000   -4.3167    0.0000 C   0  0  0  0  0  0  0  0  0  0  0  0
    2.3500   -5.6375    0.0000 C   0  0  0  0  0  0  0  0  0  0  0  0
   -2.8708   -6.8750    0.0000 O   0  0  0  0  0  0  0  0  0  0  0  0
   -1.4125   -4.3167    0.0000 C   0  0  0  0  0  0  0  0  0  0  0  0
   -2.8833   -7.7750    0.0000 C   0  0  0  0  0  0  0  0  0  0  0  0
   -2.1500   -3.8750    0.0000 C   0  0  0  0  0  0  0  0  0  0  0  0
    0.0000   -6.9000    0.0000 O   0  0  0  0  0  0  0  0  0  0  0  0
    2.9167   -2.4250    0.0000 C   0  0  0  0  0  0  0  0  0  0  0  0
    1.5292   -2.6375    0.0000 C   0  0  0  0  0  0  0  0  0  0  0  0
    2.5167   -1.6375    0.0000 O   0  0  0  0  0  0  0  0  0  0  0  0
    3.8792   -5.6375    0.0000 O   0  0  0  0  0  0  0  0  0  0  0  0
    1.6667   -1.8000    0.0000 C   0  0  0  0  0  0  0  0  0  0  0  0
   -3.6500   -8.2750    0.0000 O   0  0  0  0  0  0  0  0  0  0  0  0
   -2.1500   -3.0250    0.0000 O   0  0  0  0  0  0  0  0  0  0  0  0
   -1.3125   -6.0750    0.0000 C   0  0  0  0  0  0  0  0  0  0  0  0
    1.6000   -3.4375    0.0000 C   0  0  0  0  0  0  0  0  0  0  0  0
   -2.1500   -4.8000    0.0000 C   0  0  0  0  0  0  0  0  0  0  0  0
   -2.8000   -6.0625    0.0000 C   0  0  0  0  0  0  0  0  0  0  0  0
   -2.8833   -4.3167    0.0000 O   0  0  0  0  0  0  0  0  0  0  0  0
   -2.0833   -8.2250    0.0000 C   0  0  0  0  0  0  0  0  0  0  0  0
   -3.5708   -3.9125    0.0000 C   0  0  0  0  0  0  0  0  0  0  0  0
  2  7  1  0
  3  2  2  0
  1  4  1  0
  5  4  1  0
  6 16  1  0
  7  1  1  0
  8  1  1  0
  9 10  1  0
 10  8  1  0
 11  6  1  0
 12  2  1  0
 11 13  1  6
 11 14  1  0
 15 18  1  0
 16 17  1  0
 17  7  1  0
 18  3  1  0
  9 19  1  6
  8 20  1  6
 21 19  1  0
 22 20  1  0
 23  4  2  0
 24 14  2  0
 25 14  1  0
 26 24  1  0
 27 15  2  0
 28 25  2  0
 29 21  2  0
 30 22  2  0
  1 31  1  1
  6 32  1  6
 33 10  1  0
 34 10  1  0
 35 22  1  0
 36 21  1  0
 37 35  1  0
  9  5  1  0
  5 12  1  1
  6  3  1  0
 13 15  1  0
 28 26  1  0
M  END
>  <ID>  (1660) 


>  <MOLENAME>  (1660) 
FISSINOLIDE

>  <therap>  (1660) 
nan

>  <ref>  (1660) 
Tetrahedron 26: 219 (1970); Tet Letters 1970: 2797; J Chem Soc 1973: 1599

>  <cas#>  (1660) 
1915-69-1

>  <source>  (1660) 
Cedrela fissilis, Khaya grandifoliola

>  <status>  (1660) 
undetermined activity

>  <tradename>  (1660) 
nan

>  <SMILES>  (1660) 
COC(=O)C[C@H]1C(C)(C)[C@@H](OC(C)=O)[C@@H]2CC3=C4CC(=O)O[C@@H](c5cocc5)[C@]4(C)CCC3[C@]1(C)C2=O

>  <standardized_failed>  (1660) 
False

$$$$

     RDKit          2D

 15 17  0  0  0  0  0  0  0  0999 V2000
    7.3042   -2.8917    0.0000 C   0  0  0  0  0  0  0  0  0  0  0  0
    7.3000   -2.0667    0.0000 O   0  0  0  0  0  0  0  0  0  0  0  0
    6.7625   -3.4042    0.0000 C   0  0  0  0  0  0  0  0  0  0  0  0
    5.2250   -3.8042    0.0000 C   0  0  0  0  0  0  0  0  0  0  0  0
    5.7292   -4.2917    0.0000 C   0  0  0  0  0  0  0  0  0  0  0  0
    4.3750   -2.9667    0.0000 C   0  0  0  0  0  0  0  0  0  0  0  0
    5.2125   -2.9667    0.0000 C   0  0  0  0  0  0  0  0  0  0  0  0
    4.3750   -3.8042    0.0000 C   0  0  0  0  0  0  0  0  0  0  0  0
    6.7625   -4.1750    0.0000 C   0  0  0  0  0  0  0  0  0  0  0  0
    5.5792   -2.3917    0.0000 C   0  0  0  0  0  0  0  0  0  0  0  0
    6.5667   -2.3625    0.0000 C   0  0  0  0  0  0  0  0  0  0  0  0
    5.4542   -5.0917    0.0000 C   0  0  0  0  0  0  0  0  0  0  0  0
    7.9750   -2.9000    0.0000 C   0  0  0  0  0  0  0  0  0  0  0  0
    3.5292   -2.9625    0.0000 C   0  0  0  0  0  0  0  0  0  0  0  0
    4.3667   -2.1250    0.0000 C   0  0  0  0  0  0  0  0  0  0  0  0
  2  1  1  0
  3  1  1  0
  4  7  1  0
  5  9  1  0
  6  7  1  0
  7 10  1  6
  8  6  1  0
  9  3  1  0
 10 11  1  0
 11  1  1  0
 12  5  2  0
 13  1  1  0
 14  6  1  0
 15  6  1  0
  3  2  1  0
  4  5  1  0
  4  8  1  1
M  END
>  <ID>  (1661) 


>  <MOLENAME>  (1661) 
CARYLOPHYLLENE OXIDE

>  <therap>  (1661) 
nan

>  <ref>  (1661) 
nan

>  <cas#>  (1661) 
1139-30-6

>  <source>  (1661) 
clove, cinnamon and many other oils

>  <status>  (1661) 
undetermined activity

>  <tradename>  (1661) 
nan

>  <SMILES>  (1661) 
C=C1CC2OC2(C)CC[C@@H]2[C@@H]1CC2(C)C

>  <standardized_failed>  (1661) 
False

$$$$

     RDKit          2D

 28 31  0  0  0  0  0  0  0  0999 V2000
    6.0542   -3.5625    0.0000 C   0  0  0  0  0  0  0  0  0  0  0  0
    4.6542   -4.3792    0.0000 C   0  0  0  0  0  0  0  0  0  0  0  0
    6.0625   -4.3750    0.0000 C   0  0  0  0  0  0  0  0  0  0  0  0
    3.9625   -4.7917    0.0000 C   0  0  0  0  0  0  0  0  0  0  0  0
    5.3625   -4.7792    0.0000 C   0  0  0  0  0  0  0  0  0  0  0  0
    5.3542   -3.1625    0.0000 C   0  0  0  0  0  0  0  0  0  0  0  0
    4.6500   -3.5667    0.0000 C   0  0  0  0  0  0  0  0  0  0  0  0
    6.7542   -3.1542    0.0000 C   0  0  0  0  0  0  0  0  0  0  0  0
    3.9667   -5.6042    0.0000 C   0  0  0  0  0  0  0  0  0  0  0  0
    7.4542   -4.3792    0.0000 C   0  0  0  0  0  0  0  0  0  0  0  0
    3.2542   -4.3917    0.0000 C   0  0  0  0  0  0  0  0  0  0  0  0
    7.4625   -3.5542    0.0000 C   0  0  0  0  0  0  0  0  0  0  0  0
    5.3667   -5.5917    0.0000 C   0  0  0  0  0  0  0  0  0  0  0  0
    8.9375   -1.8667    0.0000 C   0  0  0  0  0  0  0  0  0  0  0  0
    4.6667   -6.0042    0.0000 C   0  0  0  0  0  0  0  0  0  0  0  0
    3.2625   -6.0167    0.0000 C   0  0  0  0  0  0  0  0  0  0  0  0
    8.9292   -1.0250    0.0000 O   0  0  0  0  0  0  0  0  0  0  0  0
    6.7542   -2.3125    0.0000 C   0  0  0  0  0  0  0  0  0  0  0  0
    7.4792   -1.8792    0.0000 C   0  0  0  0  0  0  0  0  0  0  0  0
    5.3500   -2.3375    0.0000 O   0  0  0  0  0  0  0  0  0  0  0  0
    8.2042   -2.2917    0.0000 C   0  0  0  0  0  0  0  0  0  0  0  0
    6.0542   -2.7167    0.0000 C   0  0  0  0  0  0  0  0  0  0  0  0
    2.5542   -4.8000    0.0000 C   0  0  0  0  0  0  0  0  0  0  0  0
    2.5542   -5.6125    0.0000 C   0  0  0  0  0  0  0  0  0  0  0  0
    3.9542   -3.9500    0.0000 C   0  0  0  0  0  0  0  0  0  0  0  0
    9.6667   -2.2792    0.0000 O   0  0  0  0  0  0  0  0  0  0  0  0
    1.8417   -6.0250    0.0000 O   0  0  0  0  0  0  0  0  0  0  0  0
    6.0167   -1.8917    0.0000 C   0  0  0  0  0  0  0  0  0  0  0  0
  2  7  1  0
  3  1  1  0
  4  2  1  0
  5  3  1  0
  6  1  1  0
  7  6  1  0
  8  1  1  0
  9  4  1  0
 10  3  1  0
 11  4  1  0
 12  8  1  0
 13  5  1  0
 14 21  1  0
 15 13  1  0
  9 16  1  6
 17 14  2  0
  8 18  1  1
 19 18  1  0
  6 20  1  6
 21 19  1  0
  1 22  1  1
 23 11  1  0
 24 23  1  0
  4 25  1  1
 26 14  1  0
 24 27  1  6
 28 18  1  0
 10 12  1  0
  5  2  1  0
  9 15  1  0
 24 16  1  0
M  END
>  <ID>  (1662) 


>  <MOLENAME>  (1662) 
DEOXYCHOLIC ACID

>  <therap>  (1662) 
nan

>  <ref>  (1662) 
J Biol Chem 238: 3846 (1963)

>  <cas#>  (1662) 
88-44-3

>  <source>  (1662) 
bile constituent

>  <status>  (1662) 
undetermined activity

>  <tradename>  (1662) 
nan

>  <SMILES>  (1662) 
CC(CCC(=O)O)[C@H]1CCC2C3CC[C@@H]4C[C@H](O)CC[C@]4(C)C3C[C@H](O)[C@@]21C

>  <standardized_failed>  (1662) 
False

$$$$

     RDKit          2D

 19 21  0  0  0  0  0  0  0  0999 V2000
    5.5167   -3.8792    0.0000 C   0  0  0  0  0  0  0  0  0  0  0  0
    6.2375   -2.6417    0.0000 N   0  0  0  0  0  0  0  0  0  0  0  0
    6.2292   -3.4667    0.0000 C   0  0  0  0  0  0  0  0  0  0  0  0
    4.8042   -3.4667    0.0000 C   0  0  0  0  0  0  0  0  0  0  0  0
    4.8125   -2.6417    0.0000 C   0  0  0  0  0  0  0  0  0  0  0  0
    5.5125   -4.7042    0.0000 C   0  0  0  0  0  0  0  0  0  0  0  0
    5.5250   -2.2250    0.0000 C   0  0  0  0  0  0  0  0  0  0  0  0
    3.3792   -2.6375    0.0000 N   0  0  0  0  0  0  0  0  0  0  0  0
    4.0917   -2.2292    0.0000 C   0  0  0  0  0  0  0  0  0  0  0  0
    6.2292   -5.1167    0.0000 O   0  0  0  0  0  0  0  0  0  0  0  0
    4.8000   -5.1125    0.0000 O   0  0  0  0  0  0  0  0  0  0  0  0
    6.9500   -2.2375    0.0000 C   0  0  0  0  0  0  0  0  0  0  0  0
    6.9375   -3.8792    0.0000 C   0  0  0  0  0  0  0  0  0  0  0  0
    2.6750   -2.2292    0.0000 C   0  0  0  0  0  0  0  0  0  0  0  0
    4.0917   -1.4042    0.0000 C   0  0  0  0  0  0  0  0  0  0  0  0
    7.6625   -2.6542    0.0000 C   0  0  0  0  0  0  0  0  0  0  0  0
    7.6542   -3.4792    0.0000 C   0  0  0  0  0  0  0  0  0  0  0  0
    2.6750   -1.4042    0.0000 C   0  0  0  0  0  0  0  0  0  0  0  0
    3.3792   -0.9875    0.0000 C   0  0  0  0  0  0  0  0  0  0  0  0
  2  3  1  0
  3  1  1  0
  4  1  1  0
  5  4  1  0
  6  1  1  0
  7  5  1  0
  9  8  1  0
  9  5  1  0
 10  6  2  0
 11  6  1  0
 12  2  1  0
 13  3  1  0
 14  8  1  0
 15  9  1  0
 16 17  1  0
 17 13  1  0
 18 19  1  0
 19 15  1  0
  7  2  1  0
 12 16  1  0
 14 18  1  0
M  END
>  <ID>  (1663) 


>  <MOLENAME>  (1663) 
APHYLLIC ACID

>  <therap>  (1663) 
nan

>  <ref>  (1663) 
nan

>  <cas#>  (1663) 
642-67-1

>  <source>  (1663) 
Anabasis aphylla

>  <status>  (1663) 
undetermined activity

>  <tradename>  (1663) 
nan

>  <SMILES>  (1663) 
O=C(O)C1CC(C2CCCCN2)CN2CCCCC12

>  <standardized_failed>  (1663) 
False

$$$$

     RDKit          2D

 31 34  0  0  0  0  0  0  0  0999 V2000
    7.5417   -4.3542    0.0000 C   0  0  0  0  0  0  0  0  0  0  0  0
    6.8292   -3.9417    0.0000 C   0  0  0  0  0  0  0  0  0  0  0  0
    6.8292   -3.1167    0.0000 C   0  0  0  0  0  0  0  0  0  0  0  0
    5.4000   -3.1292    0.0000 O   0  0  0  0  0  0  0  0  0  0  0  0
    6.1625   -4.1292    0.0000 C   0  0  0  0  0  0  0  0  0  0  0  0
    5.8792   -4.8792    0.0000 C   0  0  0  0  0  0  0  0  0  0  0  0
    4.6792   -2.7167    0.0000 C   0  0  0  0  0  0  0  0  0  0  0  0
    7.7125   -5.0417    0.0000 C   0  0  0  0  0  0  0  0  0  0  0  0
    6.1125   -2.7125    0.0000 C   0  0  0  0  0  0  0  0  0  0  0  0
    4.6792   -1.8917    0.0000 C   0  0  0  0  0  0  0  0  0  0  0  0
    7.1875   -5.6542    0.0000 C   0  0  0  0  0  0  0  0  0  0  0  0
    6.3375   -5.5875    0.0000 C   0  0  0  0  0  0  0  0  0  0  0  0
    8.2542   -3.9375    0.0000 C   0  0  0  0  0  0  0  0  0  0  0  0
    7.5292   -2.7042    0.0000 C   0  0  0  0  0  0  0  0  0  0  0  0
    5.3917   -1.4750    0.0000 C   0  0  0  0  0  0  0  0  0  0  0  0
    3.9667   -1.4792    0.0000 C   0  0  0  0  0  0  0  0  0  0  0  0
    8.2500   -3.1042    0.0000 C   0  0  0  0  0  0  0  0  0  0  0  0
    6.1042   -1.8792    0.0000 C   0  0  0  0  0  0  0  0  0  0  0  0
    5.0625   -4.9667    0.0000 C   0  0  0  0  0  0  0  0  0  0  0  0
    3.9667   -3.1292    0.0000 C   0  0  0  0  0  0  0  0  0  0  0  0
    3.2542   -1.8917    0.0000 C   0  0  0  0  0  0  0  0  0  0  0  0
    3.2542   -2.7167    0.0000 C   0  0  0  0  0  0  0  0  0  0  0  0
    8.5125   -5.2375    0.0000 O   0  0  0  0  0  0  0  0  0  0  0  0
    4.5750   -4.3042    0.0000 O   0  0  0  0  0  0  0  0  0  0  0  0
    7.5000   -6.4167    0.0000 O   0  0  0  0  0  0  0  0  0  0  0  0
    8.9667   -4.3500    0.0000 O   0  0  0  0  0  0  0  0  0  0  0  0
    3.9625   -0.6542    0.0000 O   0  0  0  0  0  0  0  0  0  0  0  0
    8.9625   -2.6917    0.0000 O   0  0  0  0  0  0  0  0  0  0  0  0
    4.7292   -5.7250    0.0000 O   0  0  0  0  0  0  0  0  0  0  0  0
    6.8167   -1.4667    0.0000 O   0  0  0  0  0  0  0  0  0  0  0  0
    2.5375   -3.1292    0.0000 O   0  0  0  0  0  0  0  0  0  0  0  0
  2  1  2  0
  3  2  1  0
  9  4  1  1
  5  2  1  0
  6  5  2  0
  7  4  1  0
  8  1  1  0
  9  3  1  0
 10 15  1  0
 11  8  1  0
 12 11  2  0
 13  1  1  0
 14 17  1  0
 15 18  1  0
 16 10  2  0
 17 13  2  0
 18  9  1  0
 19  6  1  0
 20  7  2  0
 21 16  1  0
 22 20  1  0
 23  8  2  0
 24 19  2  0
 25 11  1  0
 26 13  1  0
 27 16  1  0
 28 17  1  0
 29 19  1  0
 18 30  1  1
 31 22  1  0
  3 14  2  0
 12  6  1  0
  7 10  1  0
 22 21  2  0
M  END
>  <ID>  (1664) 


>  <MOLENAME>  (1664) 
EPITHEAFLAVIC ACID

>  <therap>  (1664) 
nan

>  <ref>  (1664) 
nan

>  <cas#>  (1664) 
nan

>  <source>  (1664) 
tea pigment

>  <status>  (1664) 
undetermined activity

>  <tradename>  (1664) 
nan

>  <SMILES>  (1664) 
O=C(O)c1cc2c(c(O)c(O)cc2[C@H]2Oc3cc(O)cc(O)c3C[C@H]2O)c(=O)c(O)c1

>  <standardized_failed>  (1664) 
False

$$$$

     RDKit          2D

 16 18  0  0  0  0  0  0  0  0999 V2000
    5.5917   -0.3792    0.0000 C   0  0  0  0  0  0  0  0  0  0  0  0
    5.5917   -1.2042    0.0000 O   0  0  0  0  0  0  0  0  0  0  0  0
    4.8792   -0.7917    0.0000 C   0  0  0  0  0  0  0  0  0  0  0  0
    3.4500   -0.8000    0.0000 C   0  0  0  0  0  0  0  0  0  0  0  0
    2.6250    0.0250    0.0000 C   0  0  0  0  0  0  0  0  0  0  0  0
    3.4500    0.0250    0.0000 C   0  0  0  0  0  0  0  0  0  0  0  0
    2.6250   -0.8000    0.0000 C   0  0  0  0  0  0  0  0  0  0  0  0
    3.4500   -1.6250    0.0000 C   0  0  0  0  0  0  0  0  0  0  0  0
    4.8792    0.8583    0.0000 C   0  0  0  0  0  0  0  0  0  0  0  0
    5.5917    0.4458    0.0000 C   0  0  0  0  0  0  0  0  0  0  0  0
    4.8792   -1.6250    0.0000 C   0  0  0  0  0  0  0  0  0  0  0  0
    4.1625   -2.0375    0.0000 C   0  0  0  0  0  0  0  0  0  0  0  0
    2.7292   -2.0500    0.0000 O   0  0  0  0  0  0  0  0  0  0  0  0
    6.3042   -0.7917    0.0000 C   0  0  0  0  0  0  0  0  0  0  0  0
    2.8167    0.8333    0.0000 C   0  0  0  0  0  0  0  0  0  0  0  0
    1.8042    0.2208    0.0000 C   0  0  0  0  0  0  0  0  0  0  0  0
  1  2  1  0
  3  1  1  0
  4  6  1  0
  5  6  1  0
  6  9  1  6
  7  5  1  0
  8 12  1  0
  9 10  1  0
 10  1  1  0
  3 11  1  6
 12 11  1  0
 13  8  2  0
  1 14  1  6
 15  5  1  0
 16  5  1  0
  3  2  1  0
  4  8  1  0
  4  7  1  6
M  END
>  <ID>  (1665) 


>  <MOLENAME>  (1665) 
KOBUSONE

>  <therap>  (1665) 
nan

>  <ref>  (1665) 
J Chem Soc 1957: 2988; Chem Pharm Bull 17: 1390 (1969); 42: 138 (1994); Helv Chim Acta 66: 1843 (1983)

>  <cas#>  (1665) 
24173-71-5

>  <source>  (1665) 
Cyperus rotundus, Sindora sumatrana

>  <status>  (1665) 
undetermined activity

>  <tradename>  (1665) 
nan

>  <SMILES>  (1665) 
CC1(C)C[C@@H]2C(=O)CC[C@H]3O[C@]3(C)CC[C@H]21

>  <standardized_failed>  (1665) 
False

$$$$

     RDKit          2D

 17 18  0  0  0  0  0  0  0  0999 V2000
    3.7792   -2.4917    0.0000 B   0  0  0  0  0  0  0  0  0  0  0  0
    3.3625   -1.7792    0.0000 C   0  0  0  0  0  0  0  0  0  0  0  0
    3.3625   -3.2042    0.0000 C   0  0  0  0  0  0  0  0  0  0  0  0
    4.6042   -2.4917    0.0000 O   0  0  0  0  0  0  0  0  0  0  0  0
    5.3167   -2.0792    0.0000 C   0  0  0  0  0  0  0  0  0  0  0  0
    6.7417   -2.0792    0.0000 N   0  0  0  0  0  0  0  0  0  0  0  0
    6.0292   -2.4917    0.0000 C   0  0  0  0  0  0  0  0  0  0  0  0
    3.7750   -1.0542    0.0000 C   0  0  0  0  0  0  0  0  0  0  0  0
    2.5375   -1.7792    0.0000 C   0  0  0  0  0  0  0  0  0  0  0  0
    2.5292   -3.2000    0.0000 C   0  0  0  0  0  0  0  0  0  0  0  0
    3.7667   -3.9167    0.0000 C   0  0  0  0  0  0  0  0  0  0  0  0
    2.1167   -1.0667    0.0000 C   0  0  0  0  0  0  0  0  0  0  0  0
    2.1167   -3.9125    0.0000 C   0  0  0  0  0  0  0  0  0  0  0  0
    3.3542   -4.6292    0.0000 C   0  0  0  0  0  0  0  0  0  0  0  0
    3.3542   -0.3417    0.0000 C   0  0  0  0  0  0  0  0  0  0  0  0
    2.5292   -0.3417    0.0000 C   0  0  0  0  0  0  0  0  0  0  0  0
    2.5250   -4.6292    0.0000 C   0  0  0  0  0  0  0  0  0  0  0  0
  2  1  1  0
  3  1  1  0
  4  1  1  0
  5  4  1  0
  6  7  1  0
  7  5  1  0
  8  2  2  0
  9  2  1  0
 10  3  2  0
 11  3  1  0
 12  9  2  0
 13 10  1  0
 14 11  2  0
 15  8  1  0
 16 12  1  0
 17 14  1  0
 17 13  2  0
 16 15  2  0
M  END
>  <ID>  (1666) 


>  <MOLENAME>  (1666) 
AMINOETHOXYDIPHENYLBORANE

>  <therap>  (1666) 
Ca release inhibitor, angiogensin II inhibitor

>  <ref>  (1666) 
J Biochem 122:498 (1997); Biochem Biophys Res Commun 264:979 (1999) 

>  <cas#>  (1666) 
524-95-8

>  <source>  (1666) 
synthetic; 2APB

>  <status>  (1666) 
experimental

>  <tradename>  (1666) 
nan

>  <SMILES>  (1666) 
NCCOB(c1ccccc1)c1ccccc1

>  <standardized_failed>  (1666) 
False

$$$$

     RDKit          2D

 29 31  0  0  0  0  0  0  0  0999 V2000
    2.1792   -4.6250    0.0000 C   0  0  0  0  0  0  0  0  0  0  0  0
    2.1792   -5.4500    0.0000 C   0  0  0  0  0  0  0  0  0  0  0  0
    1.4625   -5.8625    0.0000 C   0  0  0  0  0  0  0  0  0  0  0  0
    1.4625   -4.2042    0.0000 O   0  0  0  0  0  0  0  0  0  0  0  0
    0.7500   -5.4417    0.0000 C   0  0  0  0  0  0  0  0  0  0  0  0
    0.7500   -4.6167    0.0000 C   0  0  0  0  0  0  0  0  0  0  0  0
    5.0375   -2.9792    0.0000 C   0  0  0  0  0  0  0  0  0  0  0  0
    5.0375   -3.8042    0.0000 C   0  0  0  0  0  0  0  0  0  0  0  0
    2.8917   -4.2167    0.0000 O   0  0  0  0  0  0  0  0  0  0  0  0
    5.7542   -2.5625    0.0000 C   0  0  0  0  0  0  0  0  0  0  0  0
    6.4750   -2.9750    0.0000 C   0  0  0  0  0  0  0  0  0  0  0  0
    4.3250   -4.2167    0.0000 C   0  0  0  0  0  0  0  0  0  0  0  0
    4.3250   -2.5667    0.0000 C   0  0  0  0  0  0  0  0  0  0  0  0
    6.4750   -3.8042    0.0000 C   0  0  0  0  0  0  0  0  0  0  0  0
    3.6042   -3.8042    0.0000 C   0  0  0  0  0  0  0  0  0  0  0  0
    5.7542   -1.7292    0.0000 O   0  0  0  0  0  0  0  0  0  0  0  0
    2.8917   -5.8625    0.0000 O   0  0  0  0  0  0  0  0  0  0  0  0
    1.4625   -6.6875    0.0000 O   0  0  0  0  0  0  0  0  0  0  0  0
    0.0375   -5.8542    0.0000 O   0  0  0  0  0  0  0  0  0  0  0  0
    3.6042   -2.9792    0.0000 C   0  0  0  0  0  0  0  0  0  0  0  0
    5.7542   -4.2292    0.0000 O   0  0  0  0  0  0  0  0  0  0  0  0
    7.1875   -4.2167    0.0000 C   0  0  0  0  0  0  0  0  0  0  0  0
    0.0375   -4.2042    0.0000 C   0  0  0  0  0  0  0  0  0  0  0  0
   -0.5958   -4.7417    0.0000 O   0  0  0  0  0  0  0  0  0  0  0  0
    7.9000   -3.8042    0.0000 C   0  0  0  0  0  0  0  0  0  0  0  0
    7.1875   -5.0417    0.0000 C   0  0  0  0  0  0  0  0  0  0  0  0
    7.9000   -5.4542    0.0000 C   0  0  0  0  0  0  0  0  0  0  0  0
    8.6167   -4.2167    0.0000 C   0  0  0  0  0  0  0  0  0  0  0  0
    8.6167   -5.0417    0.0000 C   0  0  0  0  0  0  0  0  0  0  0  0
  2  1  1  0
  3  2  1  0
  4  1  1  0
  5  6  1  0
  6  4  1  0
  7 13  2  0
  8 12  2  0
  1  9  1  1
 10  7  1  0
 11 10  1  0
 12 15  1  0
 13 20  1  0
 14 11  2  0
 15  9  1  0
 16 10  2  0
  2 17  1  6
  3 18  1  1
  5 19  1  6
 20 15  2  0
 21  8  1  0
 22 14  1  0
  6 23  1  1
 24 23  1  0
 25 22  2  0
 26 22  1  0
 27 26  2  0
 28 25  1  0
 29 27  1  0
  5  3  1  0
  7  8  1  0
 28 29  2  0
M  END
>  <ID>  (1667) 


>  <MOLENAME>  (1667) 
2'.4'-DIHYDROXYCHALCONE 4'-GLUCOSIDE

>  <therap>  (1667) 
anthelmintic & antiulcerocenic

>  <ref>  (1667) 
Phytochemistry 21: 1063 (1982); Planta Medica 58: 389 (1992)

>  <cas#>  (1667) 
nan

>  <source>  (1667) 
aglycone Flamingia chappar, Acacia neovernicosa

>  <status>  (1667) 
experimental

>  <tradename>  (1667) 
nan

>  <SMILES>  (1667) 
O=C(/C=C/c1ccccc1)c1ccc(O[C@@H]2O[C@H](CO)[C@@H](O)[C@H](O)[C@H]2O)cc1O

>  <standardized_failed>  (1667) 
False

$$$$

     RDKit          2D

 55 62  0  0  0  0  0  0  0  0999 V2000
    6.2792   -2.7500    0.0000 C   0  0  0  0  0  0  0  0  0  0  0  0
    5.5667   -3.1625    0.0000 C   0  0  0  0  0  0  0  0  0  0  0  0
    7.7042   -2.7667    0.0000 C   0  0  0  0  0  0  0  0  0  0  0  0
    7.7167   -1.9417    0.0000 C   0  0  0  0  0  0  0  0  0  0  0  0
    6.9875   -3.1667    0.0000 C   0  0  0  0  0  0  0  0  0  0  0  0
    5.5625   -2.3375    0.0000 C   0  0  0  0  0  0  0  0  0  0  0  0
    5.5625   -3.9875    0.0000 C   0  0  0  0  0  0  0  0  0  0  0  0
    8.5000   -1.6917    0.0000 C   0  0  0  0  0  0  0  0  0  0  0  0
    6.2625   -6.0417    0.0000 C   0  0  0  0  0  0  0  0  0  0  0  0
    8.7625   -0.9167    0.0000 C   0  0  0  0  0  0  0  0  0  0  0  0
    6.9750   -6.4625    0.0000 C   0  0  0  0  0  0  0  0  0  0  0  0
    2.7125   -5.6375    0.0000 C   0  0  0  0  0  0  0  0  0  0  0  0
    6.9667   -7.2875    0.0000 C   0  0  0  0  0  0  0  0  0  0  0  0
    2.7042   -4.8125    0.0000 C   0  0  0  0  0  0  0  0  0  0  0  0
    5.5417   -6.4542    0.0000 O   0  0  0  0  0  0  0  0  0  0  0  0
    6.2750   -4.4000    0.0000 C   0  0  0  0  0  0  0  0  0  0  0  0
    4.8542   -4.3917    0.0000 C   0  0  0  0  0  0  0  0  0  0  0  0
    9.5500   -0.6750    0.0000 O   0  0  0  0  0  0  0  0  0  0  0  0
    6.2500   -7.6917    0.0000 C   0  0  0  0  0  0  0  0  0  0  0  0
    8.4875   -3.0250    0.0000 C   0  0  0  0  0  0  0  0  0  0  0  0
    8.9750   -2.3667    0.0000 C   0  0  0  0  0  0  0  0  0  0  0  0
    2.0000   -6.0542    0.0000 C   0  0  0  0  0  0  0  0  0  0  0  0
    5.5417   -7.2750    0.0000 C   0  0  0  0  0  0  0  0  0  0  0  0
    6.9917   -3.9917    0.0000 C   0  0  0  0  0  0  0  0  0  0  0  0
    6.2667   -5.2250    0.0000 O   0  0  0  0  0  0  0  0  0  0  0  0
    6.2875   -1.9250    0.0000 C   0  0  0  0  0  0  0  0  0  0  0  0
    4.1417   -3.9875    0.0000 C   0  0  0  0  0  0  0  0  0  0  0  0
    1.9917   -4.4042    0.0000 O   0  0  0  0  0  0  0  0  0  0  0  0
    3.4292   -4.4000    0.0000 O   0  0  0  0  0  0  0  0  0  0  0  0
    4.8542   -2.7417    0.0000 C   0  0  0  0  0  0  0  0  0  0  0  0
    7.0042   -1.5167    0.0000 C   0  0  0  0  0  0  0  0  0  0  0  0
    9.5542    0.1500    0.0000 C   0  0  0  0  0  0  0  0  0  0  0  0
    1.2792   -5.6417    0.0000 C   0  0  0  0  0  0  0  0  0  0  0  0
   10.2292    0.6333    0.0000 C   0  0  0  0  0  0  0  0  0  0  0  0
    8.2792   -0.2417    0.0000 C   0  0  0  0  0  0  0  0  0  0  0  0
    1.2792   -4.8167    0.0000 C   0  0  0  0  0  0  0  0  0  0  0  0
    4.1417   -3.1625    0.0000 C   0  0  0  0  0  0  0  0  0  0  0  0
    8.7750    0.4208    0.0000 C   0  0  0  0  0  0  0  0  0  0  0  0
    7.6917   -6.0542    0.0000 O   0  0  0  0  0  0  0  0  0  0  0  0
    3.4292   -6.0500    0.0000 O   0  0  0  0  0  0  0  0  0  0  0  0
    7.6792   -7.7042    0.0000 O   0  0  0  0  0  0  0  0  0  0  0  0
    7.7042   -3.5917    0.0000 C   0  0  0  0  0  0  0  0  0  0  0  0
    6.2417   -8.5167    0.0000 O   0  0  0  0  0  0  0  0  0  0  0  0
    7.7125   -1.1167    0.0000 C   0  0  0  0  0  0  0  0  0  0  0  0
    2.0042   -6.8792    0.0000 O   0  0  0  0  0  0  0  0  0  0  0  0
    9.8000   -2.3750    0.0000 O   0  0  0  0  0  0  0  0  0  0  0  0
    9.3417   -1.5000    0.0000 C   0  0  0  0  0  0  0  0  0  0  0  0
   10.9417    1.0458    0.0000 O   0  0  0  0  0  0  0  0  0  0  0  0
    0.5750   -6.0542    0.0000 O   0  0  0  0  0  0  0  0  0  0  0  0
    4.8250   -7.6792    0.0000 C   0  0  0  0  0  0  0  0  0  0  0  0
    4.4375   -5.1042    0.0000 C   0  0  0  0  0  0  0  0  0  0  0  0
    5.2625   -5.1042    0.0000 C   0  0  0  0  0  0  0  0  0  0  0  0
    4.9667   -8.4917    0.0000 O   0  0  0  0  0  0  0  0  0  0  0  0
   10.9792    0.2833    0.0000 C   0  0  0  0  0  0  0  0  0  0  0  0
   10.1542    1.4500    0.0000 C   0  0  0  0  0  0  0  0  0  0  0  0
  2  1  1  0
  3  5  1  0
  4 31  1  0
  5  1  1  0
  1  6  1  1
  7  2  1  0
  8  4  1  0
  9 25  1  1
  8 10  1  1
 11  9  1  0
 12 14  1  0
 13 11  1  0
 14 29  1  1
 15  9  1  0
 16 24  1  0
 17  7  1  0
 18 10  1  0
 19 23  1  0
 20  3  1  0
 21 20  1  0
 22 12  1  0
 23 15  1  0
 24  5  1  0
 16 25  1  6
 26  1  1  0
 27 37  1  0
 28 14  1  0
 27 29  1  1
  2 30  1  6
 31 26  1  0
 32 18  1  0
 33 36  1  0
 32 34  1  1
 35 10  1  0
 36 28  1  0
 37 30  1  0
 38 35  1  0
 11 39  1  6
 12 40  1  6
 13 41  1  1
  3 42  1  6
 19 43  1  6
  4 44  1  1
 22 45  1  1
 21 46  1  1
 10 47  1  6
 48 34  1  0
 33 49  1  6
 23 50  1  1
 51 17  1  0
 52 17  1  0
 53 50  1  0
 54 34  1  0
 55 34  1  0
  2  6  1  0
  3  4  1  0
 16  7  1  0
  8 21  1  0
 27 17  1  0
 38 32  1  0
 19 13  1  0
 22 33  1  0
M  END
>  <ID>  (1668) 


>  <MOLENAME>  (1668) 
ASTRAGALOSIDE IV

>  <therap>  (1668) 
nan

>  <ref>  (1668) 
Chem Pharm Bull 31:689, 698, 709, 716 (1983)

>  <cas#>  (1668) 
84687-43-4

>  <source>  (1668) 
Astragalus species

>  <status>  (1668) 
undetermined activity

>  <tradename>  (1668) 
nan

>  <SMILES>  (1668) 
CC(C)(O)[C@@H]1CC[C@](C)([C@H]2[C@@H](O)C[C@@]3(C)C4C[C@H](O[C@@H]5O[C@H](CO)[C@@H](O)[C@H](O)[C@H]5O)C5C(C)(C)[C@@H](O[C@@H]6OC[C@@H](O)[C@H](O)[C@H]6O)CC[C@@]56C[C@@]46CC[C@]23C)O1

>  <standardized_failed>  (1668) 
False

$$$$

     RDKit          2D

 28 30  0  0  0  0  0  0  0  0999 V2000
    5.0167   -4.4250    0.0000 C   0  0  0  0  0  0  0  0  0  0  0  0
    5.0167   -3.6000    0.0000 C   0  0  0  0  0  0  0  0  0  0  0  0
    4.3000   -4.8417    0.0000 C   0  0  0  0  0  0  0  0  0  0  0  0
    5.7250   -3.1792    0.0000 O   0  0  0  0  0  0  0  0  0  0  0  0
    5.7375   -4.8375    0.0000 C   0  0  0  0  0  0  0  0  0  0  0  0
    4.3000   -3.1875    0.0000 C   0  0  0  0  0  0  0  0  0  0  0  0
    6.4417   -3.5917    0.0000 C   0  0  0  0  0  0  0  0  0  0  0  0
    3.5875   -4.4292    0.0000 C   0  0  0  0  0  0  0  0  0  0  0  0
    3.5875   -3.6000    0.0000 C   0  0  0  0  0  0  0  0  0  0  0  0
    6.4500   -4.4167    0.0000 C   0  0  0  0  0  0  0  0  0  0  0  0
    7.1500   -3.1750    0.0000 C   0  0  0  0  0  0  0  0  0  0  0  0
    7.8667   -3.5875    0.0000 C   0  0  0  0  0  0  0  0  0  0  0  0
    8.5792   -3.1667    0.0000 C   0  0  0  0  0  0  0  0  0  0  0  0
    5.7375   -5.6625    0.0000 O   0  0  0  0  0  0  0  0  0  0  0  0
    8.5750   -2.3417    0.0000 C   0  0  0  0  0  0  0  0  0  0  0  0
    7.1500   -2.3542    0.0000 C   0  0  0  0  0  0  0  0  0  0  0  0
    7.8542   -1.9375    0.0000 C   0  0  0  0  0  0  0  0  0  0  0  0
    4.3042   -5.6667    0.0000 O   0  0  0  0  0  0  0  0  0  0  0  0
    4.3000   -2.3625    0.0000 O   0  0  0  0  0  0  0  0  0  0  0  0
    2.8750   -4.8417    0.0000 O   0  0  0  0  0  0  0  0  0  0  0  0
    2.8750   -3.1917    0.0000 O   0  0  0  0  0  0  0  0  0  0  0  0
    9.3000   -3.5792    0.0000 O   0  0  0  0  0  0  0  0  0  0  0  0
    9.2875   -1.9250    0.0000 O   0  0  0  0  0  0  0  0  0  0  0  0
    2.1625   -3.6042    0.0000 C   0  0  0  0  0  0  0  0  0  0  0  0
    2.1625   -4.4292    0.0000 C   0  0  0  0  0  0  0  0  0  0  0  0
    5.0125   -1.9500    0.0000 C   0  0  0  0  0  0  0  0  0  0  0  0
    9.3000   -4.4042    0.0000 C   0  0  0  0  0  0  0  0  0  0  0  0
    9.2792   -1.1000    0.0000 C   0  0  0  0  0  0  0  0  0  0  0  0
  2  1  1  0
  3  1  2  0
  4  2  1  0
  5  1  1  0
  6  2  2  0
  7 10  2  0
  8  3  1  0
  9  8  2  0
 10  5  1  0
 11  7  1  0
 12 11  2  0
 13 12  1  0
 14  5  2  0
 15 17  1  0
 16 11  1  0
 17 16  2  0
 18  3  1  0
 19  6  1  0
 20  8  1  0
 21  9  1  0
 22 13  1  0
 23 15  1  0
 24 21  1  0
 25 20  1  0
 26 19  1  0
 27 22  1  0
 28 23  1  0
  7  4  1  0
  9  6  1  0
 15 13  2  0
M  END
>  <ID>  (1669) 


>  <MOLENAME>  (1669) 
DEMETHYLNOBILETIN

>  <therap>  (1669) 
nan

>  <ref>  (1669) 
Tetrahedron 8:64 (1960);  Phytochemistry 11:2283 (1972); 24:1027 (1985)

>  <cas#>  (1669) 
2174-59-6

>  <source>  (1669) 
Citrus, Sideritis, Heteropappus and Thymus spp; Mentha piperita, Amaracus pampanini 

>  <status>  (1669) 
undetermined activity

>  <tradename>  (1669) 
nan

>  <SMILES>  (1669) 
COc1c(OC)cc(-c2cc(=O)c3c(O)c(OC)c(OC)c(OC)c3o2)cc1

>  <standardized_failed>  (1669) 
False

$$$$

     RDKit          2D

 10  9  0  0  0  0  0  0  0  0999 V2000
    6.4875   -2.2792    0.0000 C   0  0  0  0  0  0  0  0  0  0  0  0
    5.7667   -1.8667    0.0000 C   0  0  0  0  0  0  0  0  0  0  0  0
    7.2000   -1.8667    0.0000 C   0  0  0  0  0  0  0  0  0  0  0  0
    5.0542   -2.2792    0.0000 C   0  0  0  0  0  0  0  0  0  0  0  0
    5.0542   -3.1042    0.0000 O   0  0  0  0  0  0  0  0  0  0  0  0
    7.2000   -1.0375    0.0000 O   0  0  0  0  0  0  0  0  0  0  0  0
    6.4875   -3.1042    0.0000 N   0  0  0  0  0  0  0  0  0  0  0  0
    5.7667   -1.0375    0.0000 O   0  0  0  0  0  0  0  0  0  0  0  0
    4.3375   -1.8667    0.0000 O   0  0  0  0  0  0  0  0  0  0  0  0
    7.9125   -2.2792    0.0000 O   0  0  0  0  0  0  0  0  0  0  0  0
  2  1  1  0
  3  1  1  0
  4  2  1  0
  5  4  2  0
  6  3  2  0
  7  1  1  0
  8  2  1  0
  9  4  1  0
 10  3  1  0
M  END
>  <ID>  (1670) 


>  <MOLENAME>  (1670) 
d.l-threo-3-HYDROXYASPARTIC ACID

>  <therap>  (1670) 
L-aspartate beta-carboxylase inhibitor

>  <ref>  (1670) 
nan

>  <cas#>  (1670) 
4294-45-5

>  <source>  (1670) 
Streptomyces spp, Arthrinium phaeospermum, Dactylosporangium aurantiacum

>  <status>  (1670) 
experimental

>  <tradename>  (1670) 
nan

>  <SMILES>  (1670) 
NC(C(=O)O)C(O)C(=O)O

>  <standardized_failed>  (1670) 
False

$$$$

     RDKit          2D

 32 35  0  0  0  0  0  0  0  0999 V2000
    2.6083    0.0833    0.0000 C   0  0  0  0  0  0  0  0  0  0  0  0
    7.1333   -3.0042    0.0000 C   0  0  0  0  0  0  0  0  0  0  0  0
    4.2708   -1.3417    0.0000 C   0  0  0  0  0  0  0  0  0  0  0  0
    7.8208   -3.4000    0.0000 C   0  0  0  0  0  0  0  0  0  0  0  0
    6.4583   -3.4000    0.0000 C   0  0  0  0  0  0  0  0  0  0  0  0
    7.1333   -2.2125    0.0000 C   0  0  0  0  0  0  0  0  0  0  0  0
    3.8583   -2.0667    0.0000 C   0  0  0  0  0  0  0  0  0  0  0  0
    8.5083   -3.0042    0.0000 C   0  0  0  0  0  0  0  0  0  0  0  0
    8.5083   -2.2125    0.0000 C   0  0  0  0  0  0  0  0  0  0  0  0
    3.0333   -2.0667    0.0000 C   0  0  0  0  0  0  0  0  0  0  0  0
    7.8208   -1.8125    0.0000 O   0  0  0  0  0  0  0  0  0  0  0  0
    5.7708   -3.0042    0.0000 C   0  0  0  0  0  0  0  0  0  0  0  0
    5.7708   -2.2125    0.0000 C   0  0  0  0  0  0  0  0  0  0  0  0
    3.8583   -0.6292    0.0000 O   0  0  0  0  0  0  0  0  0  0  0  0
    2.6208   -1.3417    0.0000 C   0  0  0  0  0  0  0  0  0  0  0  0
    3.0333   -0.6292    0.0000 C   0  0  0  0  0  0  0  0  0  0  0  0
    6.4583   -1.8125    0.0000 C   0  0  0  0  0  0  0  0  0  0  0  0
    5.1708   -1.8292    0.0000 O   0  0  0  0  0  0  0  0  0  0  0  0
    7.8208   -4.2000    0.0000 O   0  0  0  0  0  0  0  0  0  0  0  0
    9.1708   -1.8375    0.0000 C   0  0  0  0  0  0  0  0  0  0  0  0
    6.4583   -4.2250    0.0000 O   0  0  0  0  0  0  0  0  0  0  0  0
    4.2833   -2.7792    0.0000 O   0  0  0  0  0  0  0  0  0  0  0  0
    2.6083   -2.7792    0.0000 O   0  0  0  0  0  0  0  0  0  0  0  0
    5.0542   -3.4167    0.0000 O   0  0  0  0  0  0  0  0  0  0  0  0
    1.7958   -1.3417    0.0000 O   0  0  0  0  0  0  0  0  0  0  0  0
    1.7833    0.0833    0.0000 O   0  0  0  0  0  0  0  0  0  0  0  0
    9.8333   -2.2167    0.0000 C   0  0  0  0  0  0  0  0  0  0  0  0
    9.1708   -1.0667    0.0000 C   0  0  0  0  0  0  0  0  0  0  0  0
   10.4958   -1.8417    0.0000 C   0  0  0  0  0  0  0  0  0  0  0  0
    9.8458   -0.6875    0.0000 C   0  0  0  0  0  0  0  0  0  0  0  0
   10.4958   -1.0750    0.0000 C   0  0  0  0  0  0  0  0  0  0  0  0
    3.0157    0.8007    0.0000 O   0  0  0  0  0  0  0  0  0  0  0  0
  3 18  1  1
  4  2  1  0
  5  2  2  0
  6  2  1  0
  7  3  1  0
  8  4  1  0
  9 11  1  0
 10  7  1  0
 11  6  1  0
 12  5  1  0
 13 17  1  0
 14  3  1  0
 15 16  1  0
 16 14  1  0
 17  6  2  0
 18 13  1  0
 19  4  2  0
 20  9  1  0
 21  5  1  0
  7 22  1  6
 10 23  1  1
 24 12  1  0
 15 25  1  6
 16  1  1  1
 26  1  1  0
 27 20  2  0
 28 20  1  0
 29 27  1  0
 30 28  2  0
 31 30  1  0
 12 13  2  0
  8  9  2  0
 31 29  2  0
 10 15  1  0
  1 32  2  0
M  END
>  <ID>  (1671) 


>  <MOLENAME>  (1671) 
BAICALIN

>  <therap>  (1671) 
diuretic

>  <ref>  (1671) 
nan

>  <cas#>  (1671) 
21967-41-9

>  <source>  (1671) 
Scutellaria & Oroxylum spp

>  <status>  (1671) 
experimental

>  <tradename>  (1671) 
nan

>  <SMILES>  (1671) 
O=C(O)[C@H]1O[C@@H](Oc2c(O)c(O)c3c(=O)cc(-c4ccccc4)oc3c2)[C@H](O)[C@@H](O)[C@@H]1O

>  <standardized_failed>  (1671) 
False

$$$$

     RDKit          2D

 36 40  0  0  0  0  0  0  0  0999 V2000
    6.4625   -2.8167    0.0000 C   0  0  0  0  0  0  0  0  0  0  0  0
    5.7292   -4.0500    0.0000 C   0  0  0  0  0  0  0  0  0  0  0  0
    6.4417   -3.6417    0.0000 C   0  0  0  0  0  0  0  0  0  0  0  0
    4.3125   -4.0417    0.0000 C   0  0  0  0  0  0  0  0  0  0  0  0
    3.6000   -5.2750    0.0000 C   0  0  0  0  0  0  0  0  0  0  0  0
    7.1750   -2.4167    0.0000 C   0  0  0  0  0  0  0  0  0  0  0  0
    7.8750   -2.8500    0.0000 C   0  0  0  0  0  0  0  0  0  0  0  0
    4.3042   -4.8667    0.0000 C   0  0  0  0  0  0  0  0  0  0  0  0
    5.0250   -3.6292    0.0000 C   0  0  0  0  0  0  0  0  0  0  0  0
    5.7542   -2.4000    0.0000 C   0  0  0  0  0  0  0  0  0  0  0  0
    5.7375   -4.8667    0.0000 C   0  0  0  0  0  0  0  0  0  0  0  0
    5.0167   -5.2792    0.0000 C   0  0  0  0  0  0  0  0  0  0  0  0
    3.6000   -3.6250    0.0000 C   0  0  0  0  0  0  0  0  0  0  0  0
    2.8917   -4.8667    0.0000 C   0  0  0  0  0  0  0  0  0  0  0  0
    8.5875   -3.2625    0.0000 C   0  0  0  0  0  0  0  0  0  0  0  0
    7.1917   -1.6042    0.0000 C   0  0  0  0  0  0  0  0  0  0  0  0
    2.8917   -4.0417    0.0000 C   0  0  0  0  0  0  0  0  0  0  0  0
    7.1500   -4.0625    0.0000 C   0  0  0  0  0  0  0  0  0  0  0  0
    5.0292   -2.8042    0.0000 C   0  0  0  0  0  0  0  0  0  0  0  0
    7.8667   -3.6667    0.0000 C   0  0  0  0  0  0  0  0  0  0  0  0
    8.5917   -2.4542    0.0000 C   0  0  0  0  0  0  0  0  0  0  0  0
    8.5792   -4.0875    0.0000 O   0  0  0  0  0  0  0  0  0  0  0  0
    7.9125   -1.2125    0.0000 C   0  0  0  0  0  0  0  0  0  0  0  0
    8.6125   -1.6375    0.0000 C   0  0  0  0  0  0  0  0  0  0  0  0
    3.0125   -5.8542    0.0000 C   0  0  0  0  0  0  0  0  0  0  0  0
    4.1792   -5.8542    0.0000 C   0  0  0  0  0  0  0  0  0  0  0  0
    5.7292   -3.2250    0.0000 C   0  0  0  0  0  0  0  0  0  0  0  0
    4.3042   -3.2167    0.0000 C   0  0  0  0  0  0  0  0  0  0  0  0
    5.0167   -6.1042    0.0000 O   0  0  0  0  0  0  0  0  0  0  0  0
    2.1750   -5.2792    0.0000 O   0  0  0  0  0  0  0  0  0  0  0  0
    6.4417   -4.4667    0.0000 C   0  0  0  0  0  0  0  0  0  0  0  0
    9.3000   -2.8500    0.0000 O   0  0  0  0  0  0  0  0  0  0  0  0
    2.1750   -3.6292    0.0000 O   0  0  0  0  0  0  0  0  0  0  0  0
    3.2167   -6.6542    0.0000 O   0  0  0  0  0  0  0  0  0  0  0  0
    6.4875   -1.1750    0.0000 C   0  0  0  0  0  0  0  0  0  0  0  0
    7.9042   -0.3875    0.0000 C   0  0  0  0  0  0  0  0  0  0  0  0
  2  3  1  0
  3  1  1  0
  4  9  1  0
  5  8  1  0
  6  1  1  6
  7  6  1  0
  8  4  1  0
  9 19  1  0
 10  1  2  0
 11  2  1  0
 12 11  1  0
 13  4  1  0
 14 17  1  0
  7 15  1  1
 16  6  1  0
 17 13  1  0
 18  3  1  0
 19 10  1  0
 20  7  1  0
 21  7  1  0
 22 15  2  0
 23 16  1  0
 24 23  1  0
  5 25  1  0
  5 26  1  1
  2 27  1  1
  4 28  1  1
 12 29  1  1
 14 30  1  1
  3 31  1  6
 32 15  1  0
 17 33  1  6
 34 25  1  0
 16 35  1  1
 23 36  1  6
  2  9  1  0
 18 20  1  0
 21 24  1  0
  8 12  1  0
  5 14  1  0
M  END
>  <ID>  (1672) 


>  <MOLENAME>  (1672) 
MADECASSIC ACID

>  <therap>  (1672) 
wound healing

>  <ref>  (1672) 
Bull Soc Chim Fr 1967: 1890; Phytochemistry 7: 1385 (1968); 28: 2852 (1989)

>  <cas#>  (1672) 
18449-41-7

>  <source>  (1672) 
Centella asiatica

>  <status>  (1672) 
experimental

>  <tradename>  (1672) 
nan

>  <SMILES>  (1672) 
C[C@@H]1[C@H]2C3=CCC4[C@@]5(C)C[C@@H](O)[C@H](O)[C@@](C)(CO)C5[C@H](O)C[C@@]4(C)[C@]3(C)CC[C@@]2(C(=O)O)CC[C@H]1C

>  <standardized_failed>  (1672) 
False

$$$$

     RDKit          2D

 19 20  0  0  0  0  0  0  0  0999 V2000
    0.9875    1.0833    0.0000 C   0  0  0  0  0  0  0  0  0  0  0  0
    0.9875    0.2500    0.0000 C   0  0  0  0  0  0  0  0  0  0  0  0
    0.2750    1.4958    0.0000 C   0  0  0  0  0  0  0  0  0  0  0  0
   -0.4458    1.0833    0.0000 C   0  0  0  0  0  0  0  0  0  0  0  0
   -0.4458    0.2500    0.0000 C   0  0  0  0  0  0  0  0  0  0  0  0
    0.2750   -0.1542    0.0000 C   0  0  0  0  0  0  0  0  0  0  0  0
    1.7042    1.5083    0.0000 C   0  0  0  0  0  0  0  0  0  0  0  0
    0.2750    2.3208    0.0000 O   0  0  0  0  0  0  0  0  0  0  0  0
    2.4292    1.0958    0.0000 C   0  0  0  0  0  0  0  0  0  0  0  0
    0.2750   -0.9875    0.0000 O   0  0  0  0  0  0  0  0  0  0  0  0
    1.6917    2.3333    0.0000 C   0  0  0  0  0  0  0  0  0  0  0  0
    2.4417    0.2708    0.0000 C   0  0  0  0  0  0  0  0  0  0  0  0
   -1.1625   -0.1667    0.0000 O   0  0  0  0  0  0  0  0  0  0  0  0
    0.9750    2.7458    0.0000 C   0  0  0  0  0  0  0  0  0  0  0  0
    2.4042    2.7500    0.0000 C   0  0  0  0  0  0  0  0  0  0  0  0
   -1.8833    0.2458    0.0000 C   0  0  0  0  0  0  0  0  0  0  0  0
    0.9667    3.5708    0.0000 C   0  0  0  0  0  0  0  0  0  0  0  0
    2.4000    3.5833    0.0000 C   0  0  0  0  0  0  0  0  0  0  0  0
    1.6875    3.9875    0.0000 C   0  0  0  0  0  0  0  0  0  0  0  0
  2  1  2  0
  3  1  1  0
  4  3  1  0
  5  4  2  0
  6  2  1  0
  7  1  1  0
  8  3  2  0
  9  7  1  0
 10  6  2  0
 11  7  1  0
 12  9  2  0
 13  5  1  0
 14 11  2  0
 15 11  1  0
 16 13  1  0
 17 14  1  0
 18 15  2  0
 19 18  1  0
  6  5  1  0
 17 19  2  0
M  END
>  <ID>  (1673) 


>  <MOLENAME>  (1673) 
4-METHOXYDALBERGIONE

>  <therap>  (1673) 
nan

>  <ref>  (1673) 
Phytochemistry 17: 1395 (1978); Tetrahedron 21: 2683 (1965)

>  <cas#>  (1673) 
4646-86-0

>  <source>  (1673) 
Dalbergia retusa and D. nigra

>  <status>  (1673) 
undetermined activity

>  <tradename>  (1673) 
nan

>  <SMILES>  (1673) 
C=CC(C1=CC(=O)C(OC)=CC1=O)c1ccccc1

>  <standardized_failed>  (1673) 
False

$$$$

     RDKit          2D

 15 15  0  0  0  0  0  0  0  0999 V2000
    6.3167   -3.5875    0.0000 C   0  0  0  0  0  0  0  0  0  0  0  0
    5.5417   -3.3042    0.0000 C   0  0  0  0  0  0  0  0  0  0  0  0
    6.9417   -3.0542    0.0000 C   0  0  0  0  0  0  0  0  0  0  0  0
    6.8042   -2.2417    0.0000 O   0  0  0  0  0  0  0  0  0  0  0  0
    5.3917   -2.5000    0.0000 C   0  0  0  0  0  0  0  0  0  0  0  0
    6.0292   -1.9625    0.0000 C   0  0  0  0  0  0  0  0  0  0  0  0
    6.4542   -4.4000    0.0000 N   0  0  0  0  0  0  0  0  0  0  0  0
    7.2292   -4.6792    0.0000 C   0  0  0  0  0  0  0  0  0  0  0  0
    7.8542   -4.1542    0.0000 O   0  0  0  0  0  0  0  0  0  0  0  0
    4.9042   -3.8375    0.0000 O   0  0  0  0  0  0  0  0  0  0  0  0
    4.6042   -2.2250    0.0000 O   0  0  0  0  0  0  0  0  0  0  0  0
    7.7250   -3.3417    0.0000 O   0  0  0  0  0  0  0  0  0  0  0  0
    5.9042   -1.1417    0.0000 C   0  0  0  0  0  0  0  0  0  0  0  0
    6.5417   -0.6292    0.0000 O   0  0  0  0  0  0  0  0  0  0  0  0
    7.3667   -5.4917    0.0000 C   0  0  0  0  0  0  0  0  0  0  0  0
  2  1  1  0
  3  1  1  0
  4  3  1  0
  5  2  1  0
  6  4  1  0
  1  7  1  6
  8  7  1  0
  9  8  2  0
  2 10  1  1
  5 11  1  6
  3 12  1  1
  6 13  1  1
 14 13  1  0
 15  8  1  0
  5  6  1  0
M  END
>  <ID>  (1674) 


>  <MOLENAME>  (1674) 
ACETYLGLUCOSAMINE

>  <therap>  (1674) 
antiarthritic

>  <ref>  (1674) 
nan

>  <cas#>  (1674) 
nan

>  <source>  (1674) 
synthetic

>  <status>  (1674) 
experimental

>  <tradename>  (1674) 
nan

>  <SMILES>  (1674) 
CC(=O)N[C@H]1[C@H](O)O[C@H](CO)[C@@H](O)[C@@H]1O

>  <standardized_failed>  (1674) 
False

$$$$

     RDKit          2D

 32 35  0  0  0  0  0  0  0  0999 V2000
    5.8667   -3.1917    0.0000 C   0  0  0  0  0  0  0  0  0  0  0  0
    5.8667   -4.0167    0.0000 C   0  0  0  0  0  0  0  0  0  0  0  0
    5.1542   -2.7792    0.0000 C   0  0  0  0  0  0  0  0  0  0  0  0
    4.4417   -3.1917    0.0000 C   0  0  0  0  0  0  0  0  0  0  0  0
    7.2292   -2.4125    0.0000 C   0  0  0  0  0  0  0  0  0  0  0  0
    5.1542   -4.4292    0.0000 O   0  0  0  0  0  0  0  0  0  0  0  0
    4.4417   -4.0167    0.0000 C   0  0  0  0  0  0  0  0  0  0  0  0
    7.2292   -1.6667    0.0000 C   0  0  0  0  0  0  0  0  0  0  0  0
    6.5917   -2.7792    0.0000 O   0  0  0  0  0  0  0  0  0  0  0  0
    7.8875   -1.2917    0.0000 C   0  0  0  0  0  0  0  0  0  0  0  0
    7.8792   -2.7917    0.0000 O   0  0  0  0  0  0  0  0  0  0  0  0
    3.7292   -2.7792    0.0000 C   0  0  0  0  0  0  0  0  0  0  0  0
    8.5292   -1.6750    0.0000 C   0  0  0  0  0  0  0  0  0  0  0  0
    6.5792   -4.4292    0.0000 C   0  0  0  0  0  0  0  0  0  0  0  0
    8.5292   -2.4250    0.0000 C   0  0  0  0  0  0  0  0  0  0  0  0
    3.7292   -4.4292    0.0000 C   0  0  0  0  0  0  0  0  0  0  0  0
    3.0125   -3.1917    0.0000 C   0  0  0  0  0  0  0  0  0  0  0  0
    6.5792   -5.2542    0.0000 C   0  0  0  0  0  0  0  0  0  0  0  0
    7.2917   -5.6667    0.0000 C   0  0  0  0  0  0  0  0  0  0  0  0
    5.1542   -1.9542    0.0000 O   0  0  0  0  0  0  0  0  0  0  0  0
    3.0125   -4.0167    0.0000 C   0  0  0  0  0  0  0  0  0  0  0  0
    8.0042   -5.2542    0.0000 C   0  0  0  0  0  0  0  0  0  0  0  0
    7.2917   -4.0167    0.0000 C   0  0  0  0  0  0  0  0  0  0  0  0
    8.0042   -4.4292    0.0000 C   0  0  0  0  0  0  0  0  0  0  0  0
    6.5875   -1.2917    0.0000 O   0  0  0  0  0  0  0  0  0  0  0  0
    7.8917   -0.5417    0.0000 O   0  0  0  0  0  0  0  0  0  0  0  0
    3.7292   -1.9542    0.0000 O   0  0  0  0  0  0  0  0  0  0  0  0
    9.1792   -1.3042    0.0000 O   0  0  0  0  0  0  0  0  0  0  0  0
    7.2875   -6.4917    0.0000 O   0  0  0  0  0  0  0  0  0  0  0  0
    8.7167   -5.6667    0.0000 O   0  0  0  0  0  0  0  0  0  0  0  0
    2.2917   -4.4417    0.0000 O   0  0  0  0  0  0  0  0  0  0  0  0
    9.1750   -2.8042    0.0000 C   0  0  0  0  0  0  0  0  0  0  0  0
  2  1  2  0
  3  1  1  0
  4  3  1  0
  5  9  1  1
  6  2  1  0
  7  4  2  0
  8  5  1  0
  9  1  1  0
 10  8  1  0
 11  5  1  0
 12  4  1  0
 13 15  1  0
 14  2  1  0
 15 11  1  0
 16  7  1  0
 17 12  2  0
 18 14  2  0
 19 18  1  0
 20  3  2  0
 21 17  1  0
 22 24  1  0
 23 14  1  0
 24 23  2  0
  8 25  1  6
 10 26  1  6
 27 12  1  0
 13 28  1  1
 29 19  1  0
 30 22  1  0
 31 21  1  0
 32 15  1  0
  7  6  1  0
 13 10  1  0
 16 21  2  0
 22 19  2  0
M  END
>  <ID>  (1675) 


>  <MOLENAME>  (1675) 
QUERCITRIN

>  <therap>  (1675) 
antihemmorrhagic

>  <ref>  (1675) 
nan

>  <cas#>  (1675) 
522-12-3

>  <source>  (1675) 
widespread in plants

>  <status>  (1675) 
experimental

>  <tradename>  (1675) 
nan

>  <SMILES>  (1675) 
CC1O[C@@H](Oc2c(-c3cc(O)c(O)cc3)oc3c(c(O)cc(O)c3)c2=O)[C@H](O)[C@H](O)[C@H]1O

>  <standardized_failed>  (1675) 
False

$$$$

     RDKit          2D

 30 35  0  0  0  0  0  0  0  0999 V2000
    6.5000   -3.0125    0.0000 C   0  0  0  0  0  0  0  0  0  0  0  0
    8.5625   -2.3750    0.0000 C   0  0  0  0  0  0  0  0  0  0  0  0
    6.4792   -3.8417    0.0000 C   0  0  0  0  0  0  0  0  0  0  0  0
    4.3417   -4.2375    0.0000 C   0  0  0  0  0  0  0  0  0  0  0  0
    7.2917   -2.7667    0.0000 C   0  0  0  0  0  0  0  0  0  0  0  0
    8.5542   -3.2000    0.0000 O   0  0  0  0  0  0  0  0  0  0  0  0
    7.7667   -3.4417    0.0000 C   0  0  0  0  0  0  0  0  0  0  0  0
    5.0542   -3.8250    0.0000 C   0  0  0  0  0  0  0  0  0  0  0  0
    5.7667   -4.2417    0.0000 C   0  0  0  0  0  0  0  0  0  0  0  0
    7.2667   -4.1042    0.0000 C   0  0  0  0  0  0  0  0  0  0  0  0
    7.7792   -2.1042    0.0000 C   0  0  0  0  0  0  0  0  0  0  0  0
    8.8042   -1.5917    0.0000 O   0  0  0  0  0  0  0  0  0  0  0  0
    4.3375   -5.0625    0.0000 C   0  0  0  0  0  0  0  0  0  0  0  0
    5.7875   -2.5917    0.0000 C   0  0  0  0  0  0  0  0  0  0  0  0
    5.0625   -2.9917    0.0000 C   0  0  0  0  0  0  0  0  0  0  0  0
    3.6292   -3.8167    0.0000 C   0  0  0  0  0  0  0  0  0  0  0  0
    5.7667   -5.0667    0.0000 C   0  0  0  0  0  0  0  0  0  0  0  0
    9.3375   -2.1542    0.0000 C   0  0  0  0  0  0  0  0  0  0  0  0
    5.0500   -5.4750    0.0000 C   0  0  0  0  0  0  0  0  0  0  0  0
    3.6292   -5.4667    0.0000 C   0  0  0  0  0  0  0  0  0  0  0  0
    6.4917   -2.1875    0.0000 C   0  0  0  0  0  0  0  0  0  0  0  0
    9.5542   -1.7417    0.0000 C   0  0  0  0  0  0  0  0  0  0  0  0
    2.9167   -4.2375    0.0000 C   0  0  0  0  0  0  0  0  0  0  0  0
    2.9167   -5.0625    0.0000 C   0  0  0  0  0  0  0  0  0  0  0  0
    4.3375   -3.4125    0.0000 C   0  0  0  0  0  0  0  0  0  0  0  0
   10.3667   -2.3042    0.0000 C   0  0  0  0  0  0  0  0  0  0  0  0
   10.7417   -1.5875    0.0000 C   0  0  0  0  0  0  0  0  0  0  0  0
    2.2042   -5.4667    0.0000 O   0  0  0  0  0  0  0  0  0  0  0  0
    7.5375   -1.3167    0.0000 C   0  0  0  0  0  0  0  0  0  0  0  0
   11.6167   -2.1792    0.0000 C   0  0  0  0  0  0  0  0  0  0  0  0
  2 11  1  0
  3  1  1  0
  4  8  1  0
  5  1  1  1
  7  6  1  0
  7  5  1  0
  8 15  1  0
  9  3  1  0
 10  3  1  0
  5 11  1  0
  2 12  1  0
 13  4  1  0
 14  1  1  0
 15 14  1  0
 16  4  1  0
 17  9  1  0
  2 18  1  1
 19 17  1  0
 13 20  1  6
  1 21  1  1
 22 12  1  0
 23 16  1  0
 24 23  1  0
  4 25  1  1
 26 18  1  0
 27 26  1  0
 24 28  1  1
 11 29  1  6
 30 27  1  0
  7 10  1  1
  8  9  1  0
  2  6  1  0
 19 13  1  0
 27 22  1  0
 24 20  1  0
M  END
>  <ID>  (1676) 


>  <MOLENAME>  (1676) 
SMILAGENIN

>  <therap>  (1676) 
nan

>  <ref>  (1676) 
J Chem Soc 1936: 1399

>  <cas#>  (1676) 
126-18-1

>  <source>  (1676) 
Smilax spp.

>  <status>  (1676) 
undetermined activity

>  <tradename>  (1676) 
nan

>  <SMILES>  (1676) 
CC1CC[C@@]2(OC1)O[C@H]1CC3C4CC[C@@H]5C[C@@H](O)CC[C@]5(C)C4CC[C@]3(C)[C@H]1[C@@H]2C

>  <standardized_failed>  (1676) 
False

$$$$

     RDKit          2D

 20 22  0  0  0  0  0  0  0  0999 V2000
    0.8250   -1.6625    0.0000 C   0  0  0  0  0  0  0  0  0  0  0  0
    0.1125   -2.0792    0.0000 C   0  0  0  0  0  0  0  0  0  0  0  0
   -0.6083   -1.6667    0.0000 C   0  0  0  0  0  0  0  0  0  0  0  0
    0.8167   -0.8292    0.0000 C   0  0  0  0  0  0  0  0  0  0  0  0
   -0.6083   -0.8417    0.0000 C   0  0  0  0  0  0  0  0  0  0  0  0
    0.1042   -0.4250    0.0000 O   0  0  0  0  0  0  0  0  0  0  0  0
    1.5375   -2.0667    0.0000 C   0  0  0  0  0  0  0  0  0  0  0  0
   -1.3208   -2.0792    0.0000 C   0  0  0  0  0  0  0  0  0  0  0  0
   -1.3208   -0.4292    0.0000 C   0  0  0  0  0  0  0  0  0  0  0  0
    0.1125   -2.9042    0.0000 O   0  0  0  0  0  0  0  0  0  0  0  0
    2.2417   -1.6542    0.0000 C   0  0  0  0  0  0  0  0  0  0  0  0
    1.5417   -2.8917    0.0000 C   0  0  0  0  0  0  0  0  0  0  0  0
   -2.0333   -0.8417    0.0000 C   0  0  0  0  0  0  0  0  0  0  0  0
   -2.0333   -1.6667    0.0000 C   0  0  0  0  0  0  0  0  0  0  0  0
    2.9667   -2.8875    0.0000 C   0  0  0  0  0  0  0  0  0  0  0  0
    2.2542   -3.3042    0.0000 C   0  0  0  0  0  0  0  0  0  0  0  0
    2.9625   -2.0542    0.0000 C   0  0  0  0  0  0  0  0  0  0  0  0
    3.6875   -3.3000    0.0000 O   0  0  0  0  0  0  0  0  0  0  0  0
   -2.7458   -0.4292    0.0000 O   0  0  0  0  0  0  0  0  0  0  0  0
   -2.7458    0.3958    0.0000 C   0  0  0  0  0  0  0  0  0  0  0  0
  2  1  1  0
  3  2  1  0
  4  1  2  0
  5  6  1  0
  6  4  1  0
  7  1  1  0
  8  3  2  0
  9  5  2  0
 10  2  2  0
 11  7  2  0
 12  7  1  0
 13  9  1  0
 14  8  1  0
 15 16  1  0
 16 12  2  0
 17 11  1  0
 18 15  1  0
 19 13  1  0
 20 19  1  0
 17 15  2  0
  5  3  1  0
 13 14  2  0
M  END
>  <ID>  (1677) 


>  <MOLENAME>  (1677) 
ISOFORMONONETIN

>  <therap>  (1677) 
nan

>  <ref>  (1677) 
Ind J Chem 13:789 (1975)

>  <cas#>  (1677) 
486-63-5

>  <source>  (1677) 
Machaerium villosum, Glycine max

>  <status>  (1677) 
undetermined activity

>  <tradename>  (1677) 
nan

>  <SMILES>  (1677) 
COc1ccc2c(=O)c(-c3ccc(O)cc3)coc2c1

>  <standardized_failed>  (1677) 
False

$$$$

     RDKit          2D

 34 38  0  0  0  0  0  0  0  0999 V2000
    7.0667   -3.7542    0.0000 C   0  0  0  0  0  0  0  0  0  0  0  0
    6.1875   -4.2292    0.0000 C   0  0  0  0  0  0  0  0  0  0  0  0
    4.4042   -4.2292    0.0000 C   0  0  0  0  0  0  0  0  0  0  0  0
    7.0667   -2.7292    0.0000 C   0  0  0  0  0  0  0  0  0  0  0  0
    5.2875   -3.7542    0.0000 C   0  0  0  0  0  0  0  0  0  0  0  0
    4.4042   -5.2542    0.0000 C   0  0  0  0  0  0  0  0  0  0  0  0
    7.9375   -2.2042    0.0000 C   0  0  0  0  0  0  0  0  0  0  0  0
    6.1875   -5.2292    0.0000 C   0  0  0  0  0  0  0  0  0  0  0  0
    3.5375   -5.7792    0.0000 C   0  0  0  0  0  0  0  0  0  0  0  0
    3.5375   -3.7542    0.0000 C   0  0  0  0  0  0  0  0  0  0  0  0
    7.9375   -4.2292    0.0000 C   0  0  0  0  0  0  0  0  0  0  0  0
    8.8042   -2.7292    0.0000 O   0  0  0  0  0  0  0  0  0  0  0  0
    5.3250   -5.7292    0.0000 C   0  0  0  0  0  0  0  0  0  0  0  0
    7.9375   -1.3792    0.0000 C   0  0  0  0  0  0  0  0  0  0  0  0
    8.8042   -3.7542    0.0000 C   0  0  0  0  0  0  0  0  0  0  0  0
    2.6500   -5.2542    0.0000 C   0  0  0  0  0  0  0  0  0  0  0  0
    2.6500   -4.2292    0.0000 C   0  0  0  0  0  0  0  0  0  0  0  0
    6.1875   -2.2042    0.0000 C   0  0  0  0  0  0  0  0  0  0  0  0
    5.2875   -2.7292    0.0000 C   0  0  0  0  0  0  0  0  0  0  0  0
    7.0542   -5.7417    0.0000 O   0  0  0  0  0  0  0  0  0  0  0  0
    7.0542   -6.7292    0.0000 C   0  0  0  0  0  0  0  0  0  0  0  0
    8.6167   -0.6417    0.0000 C   0  0  0  0  0  0  0  0  0  0  0  0
    7.0292   -0.9167    0.0000 C   0  0  0  0  0  0  0  0  0  0  0  0
    8.1625    0.2583    0.0000 O   0  0  0  0  0  0  0  0  0  0  0  0
    9.6917   -4.2667    0.0000 O   0  0  0  0  0  0  0  0  0  0  0  0
    7.1625    0.0583    0.0000 C   0  0  0  0  0  0  0  0  0  0  0  0
    1.7750   -5.7667    0.0000 O   0  0  0  0  0  0  0  0  0  0  0  0
    6.2167   -7.2917    0.0000 O   0  0  0  0  0  0  0  0  0  0  0  0
    6.1875   -3.0167    0.0000 C   0  0  0  0  0  0  0  0  0  0  0  0
    4.4042   -3.0917    0.0000 C   0  0  0  0  0  0  0  0  0  0  0  0
    7.0667   -1.7042    0.0000 C   0  0  0  0  0  0  0  0  0  0  0  0
    4.4042   -6.3167    0.0000 C   0  0  0  0  0  0  0  0  0  0  0  0
    2.6500   -6.3167    0.0000 C   0  0  0  0  0  0  0  0  0  0  0  0
    7.9042   -7.2792    0.0000 C   0  0  0  0  0  0  0  0  0  0  0  0
  2  1  1  0
  3  5  1  0
  4  1  1  0
  5  2  1  0
  6 13  1  0
  7  4  1  0
  8  2  1  0
  9  6  1  0
 10  3  1  0
 11  1  2  0
 12 15  1  0
 13  8  1  0
  7 14  1  0
 15 11  1  0
 16  9  1  0
 17 10  2  0
 18  4  1  0
 19 18  1  0
  8 20  1  6
 21 20  1  0
 22 14  2  0
 23 14  1  0
 24 22  1  0
 25 15  2  0
 26 23  2  0
 27 16  2  0
 28 21  2  0
  2 29  1  1
  3 30  1  1
  4 31  1  6
 32  9  1  0
 33  9  1  0
 34 21  1  0
  7 12  1  6
  5 19  1  0
  6  3  1  0
 26 24  1  0
 16 17  1  0
M  END
>  <ID>  (1678) 


>  <MOLENAME>  (1678) 
DEOXYGEDUNIN

>  <therap>  (1678) 
neuroprotective, anti-depressant. learning enhancement

>  <ref>  (1678) 
PLoS One 

>  <cas#>  (1678) 
21963-95-1

>  <source>  (1678) 
Meliaceae spp

>  <status>  (1678) 
experimental

>  <tradename>  (1678) 
nan

>  <SMILES>  (1678) 
CC(=O)O[C@@H]1CC2C(C)(C)C(=O)C=C[C@]2(C)C2CC[C@]3(C)C(=CC(=O)O[C@H]3c3cocc3)[C@@]21C

>  <standardized_failed>  (1678) 
False

$$$$

     RDKit          2D

 24 27  0  0  0  0  0  0  0  0999 V2000
    3.9125   -1.9292    0.0000 C   0  0  0  0  0  0  0  0  0  0  0  0
    5.0667   -1.0875    0.0000 N   0  0  0  0  0  0  0  0  0  0  0  0
    4.7292   -1.8417    0.0000 C   0  0  0  0  0  0  0  0  0  0  0  0
    5.8875   -0.9917    0.0000 C   0  0  0  0  0  0  0  0  0  0  0  0
    3.4167   -1.2667    0.0000 C   0  0  0  0  0  0  0  0  0  0  0  0
    3.4292   -2.6042    0.0000 N   0  0  0  0  0  0  0  0  0  0  0  0
    6.3750   -1.6625    0.0000 C   0  0  0  0  0  0  0  0  0  0  0  0
    2.6375   -1.5292    0.0000 C   0  0  0  0  0  0  0  0  0  0  0  0
    2.6417   -2.3542    0.0000 C   0  0  0  0  0  0  0  0  0  0  0  0
    4.5750   -0.4167    0.0000 C   0  0  0  0  0  0  0  0  0  0  0  0
    3.7500   -0.5042    0.0000 C   0  0  0  0  0  0  0  0  0  0  0  0
    5.2167   -2.5042    0.0000 O   0  0  0  0  0  0  0  0  0  0  0  0
    7.1875   -1.5667    0.0000 C   0  0  0  0  0  0  0  0  0  0  0  0
    6.2167   -0.2417    0.0000 O   0  0  0  0  0  0  0  0  0  0  0  0
    7.5167   -0.8125    0.0000 N   0  0  0  0  0  0  0  0  0  0  0  0
    6.0375   -2.4167    0.0000 C   0  0  0  0  0  0  0  0  0  0  0  0
    1.9167   -1.1167    0.0000 C   0  0  0  0  0  0  0  0  0  0  0  0
    1.9167   -2.7667    0.0000 C   0  0  0  0  0  0  0  0  0  0  0  0
    7.6792   -2.2292    0.0000 C   0  0  0  0  0  0  0  0  0  0  0  0
    8.3375   -0.7167    0.0000 C   0  0  0  0  0  0  0  0  0  0  0  0
    6.5250   -3.0792    0.0000 C   0  0  0  0  0  0  0  0  0  0  0  0
    1.2042   -1.5292    0.0000 C   0  0  0  0  0  0  0  0  0  0  0  0
    1.2042   -2.3542    0.0000 C   0  0  0  0  0  0  0  0  0  0  0  0
    7.3417   -2.9917    0.0000 C   0  0  0  0  0  0  0  0  0  0  0  0
  2  3  1  0
  3  1  1  0
  4  2  1  0
  5  1  2  0
  6  1  1  0
  7  4  1  0
  8  5  1  0
  9  6  1  0
 10 11  1  0
 11  5  1  0
 12  3  2  0
 13  7  2  0
 14  4  2  0
 15 13  1  0
 16  7  1  0
 17  8  2  0
 18  9  2  0
 19 13  1  0
 20 15  1  0
 21 16  2  0
 22 17  1  0
 23 18  1  0
 24 21  1  0
  9  8  1  0
 10  2  1  0
 23 22  2  0
 24 19  2  0
M  END
>  <ID>  (1679) 


>  <MOLENAME>  (1679) 
RHETSININE

>  <therap>  (1679) 
nan

>  <ref>  (1679) 
Tetrahedron 7: 257 (1959)

>  <cas#>  (1679) 
526-43-2

>  <source>  (1679) 
Zanthoxylum rhetsa, Evodia rutaecarpa

>  <status>  (1679) 
undetermined activity

>  <tradename>  (1679) 
nan

>  <SMILES>  (1679) 
CNc1c(C(=O)N2CCc3c([nH]c4ccccc34)C2=O)cccc1

>  <standardized_failed>  (1679) 
False

$$$$

     RDKit          2D

 25 27  0  0  0  0  0  0  0  0999 V2000
    5.5625   -3.7792    0.0000 C   0  0  0  0  0  0  0  0  0  0  0  0
    6.2750   -3.3625    0.0000 C   0  0  0  0  0  0  0  0  0  0  0  0
    5.5542   -4.6042    0.0000 C   0  0  0  0  0  0  0  0  0  0  0  0
    4.8500   -5.0125    0.0000 C   0  0  0  0  0  0  0  0  0  0  0  0
    6.9875   -2.9417    0.0000 O   0  0  0  0  0  0  0  0  0  0  0  0
    4.8500   -3.3625    0.0000 C   0  0  0  0  0  0  0  0  0  0  0  0
    5.6625   -2.8125    0.0000 C   0  0  0  0  0  0  0  0  0  0  0  0
    6.2667   -5.0167    0.0000 C   0  0  0  0  0  0  0  0  0  0  0  0
    6.8125   -2.1375    0.0000 C   0  0  0  0  0  0  0  0  0  0  0  0
    4.1417   -4.6042    0.0000 C   0  0  0  0  0  0  0  0  0  0  0  0
    6.9792   -3.7875    0.0000 C   0  0  0  0  0  0  0  0  0  0  0  0
    4.1417   -3.7792    0.0000 C   0  0  0  0  0  0  0  0  0  0  0  0
    6.9875   -4.6042    0.0000 C   0  0  0  0  0  0  0  0  0  0  0  0
    5.9917   -2.0542    0.0000 C   0  0  0  0  0  0  0  0  0  0  0  0
    5.2542   -5.7250    0.0000 C   0  0  0  0  0  0  0  0  0  0  0  0
    5.1417   -3.0625    0.0000 C   0  0  0  0  0  0  0  0  0  0  0  0
    7.6375   -2.1375    0.0000 C   0  0  0  0  0  0  0  0  0  0  0  0
    4.4292   -5.7250    0.0000 C   0  0  0  0  0  0  0  0  0  0  0  0
    3.4250   -5.0125    0.0000 O   0  0  0  0  0  0  0  0  0  0  0  0
    6.0792   -5.7292    0.0000 O   0  0  0  0  0  0  0  0  0  0  0  0
    6.8042   -1.3125    0.0000 C   0  0  0  0  0  0  0  0  0  0  0  0
    6.0917   -0.9000    0.0000 O   0  0  0  0  0  0  0  0  0  0  0  0
    8.8667   -1.4167    0.0000 O   0  0  0  0  0  0  0  0  0  0  0  0
    8.0417   -1.4167    0.0000 C   0  0  0  0  0  0  0  0  0  0  0  0
    7.6917   -3.3667    0.0000 C   0  0  0  0  0  0  0  0  0  0  0  0
  2  1  1  0
  3  1  1  0
  4  3  1  0
  2  5  1  0
  6  1  1  0
  2  7  1  1
  8  3  1  0
  9  5  1  0
 10 12  1  0
 11  2  1  0
 12  6  1  0
 13  8  1  0
 14  7  1  0
  4 15  1  0
  1 16  1  1
  9 17  1  1
  4 18  1  1
 10 19  1  1
 20 15  1  0
  9 21  1  0
 22 21  1  0
 23 24  1  0
 24 17  1  0
 11 25  1  6
  4 10  1  0
 13 11  1  0
  9 14  1  0
M  END
>  <ID>  (1680) 


>  <MOLENAME>  (1680) 
LAGOCHILIN

>  <therap>  (1680) 
nan

>  <ref>  (1680) 
Chem Commun 1974:249

>  <cas#>  (1680) 
23554-81-6

>  <source>  (1680) 
Lagochilus inebrians

>  <status>  (1680) 
undetermined activity

>  <tradename>  (1680) 
nan

>  <SMILES>  (1680) 
C[C@@H]1CCC2[C@](C)(CC[C@H](O)[C@@]2(C)CO)[C@@]12CC[C@@](CO)(CCO)O2

>  <standardized_failed>  (1680) 
False

$$$$

     RDKit          2D

 20 21  0  0  0  0  0  0  0  0999 V2000
    6.0667   -2.8417    0.0000 N   0  0  0  0  0  0  0  0  0  0  0  0
    3.9375   -4.0875    0.0000 N   0  0  0  0  0  0  0  0  0  0  0  0
    5.3542   -2.4292    0.0000 C   0  0  0  0  0  0  0  0  0  0  0  0
    4.6417   -2.8417    0.0000 C   0  0  0  0  0  0  0  0  0  0  0  0
    3.2167   -3.6750    0.0000 C   0  0  0  0  0  0  0  0  0  0  0  0
    4.6500   -3.6750    0.0000 C   0  0  0  0  0  0  0  0  0  0  0  0
    2.5042   -4.0917    0.0000 C   0  0  0  0  0  0  0  0  0  0  0  0
    1.7917   -5.3292    0.0000 N   0  0  0  0  0  0  0  0  0  0  0  0
    3.9250   -2.4375    0.0000 C   0  0  0  0  0  0  0  0  0  0  0  0
    3.2167   -2.8542    0.0000 C   0  0  0  0  0  0  0  0  0  0  0  0
    2.5042   -4.9167    0.0000 C   0  0  0  0  0  0  0  0  0  0  0  0
    7.6042   -2.9292    0.0000 Cl  0  0  0  0  0  0  0  0  0  0  0  0
    6.0750   -3.6667    0.0000 C   0  0  0  0  0  0  0  0  0  0  0  0
    6.7792   -2.4250    0.0000 C   0  0  0  0  0  0  0  0  0  0  0  0
    5.3500   -1.6042    0.0000 C   0  0  0  0  0  0  0  0  0  0  0  0
    1.7917   -3.6792    0.0000 C   0  0  0  0  0  0  0  0  0  0  0  0
    1.0792   -4.9167    0.0000 C   0  0  0  0  0  0  0  0  0  0  0  0
    1.0792   -4.0917    0.0000 C   0  0  0  0  0  0  0  0  0  0  0  0
    6.7792   -1.6000    0.0000 C   0  0  0  0  0  0  0  0  0  0  0  0
    6.0542   -1.1917    0.0000 C   0  0  0  0  0  0  0  0  0  0  0  0
  2  6  2  0
  3  1  1  0
  4  3  1  0
  5 10  2  0
  6  4  1  0
  7  5  1  0
  8 11  2  0
  9  4  2  0
 10  9  1  0
 11  7  1  0
 13  1  1  0
 14  1  1  0
 15  3  1  0
 16  7  2  0
 17 18  2  0
 18 16  1  0
 19 14  1  0
 20 19  1  0
 15 20  1  0
  2  5  1  0
  8 17  1  0
M  END
>  <ID>  (1681) 


>  <MOLENAME>  (1681) 
ANABASAMINE HYDROCHLORIDE

>  <therap>  (1681) 
nan

>  <ref>  (1681) 
J Asian Nat Prod Res 10:1093 (2008)

>  <cas#>  (1681) 
20410-87-1(base)

>  <source>  (1681) 
Anabasis aphylla

>  <status>  (1681) 
undetermined activity

>  <tradename>  (1681) 
nan

>  <SMILES>  (1681) 
CN1CCCCC1c1ccc(-c2cccnc2)nc1

>  <standardized_failed>  (1681) 
False

$$$$

     RDKit          2D

 15 15  0  0  0  0  0  0  0  0999 V2000
    4.7125   -4.3667    0.0000 C   0  0  0  0  0  0  0  0  0  0  0  0
    3.8875   -4.3750    0.0000 C   0  0  0  0  0  0  0  0  0  0  0  0
    5.1250   -5.0792    0.0000 N   0  0  0  0  0  0  0  0  0  0  0  0
    4.7125   -5.8000    0.0000 C   0  0  0  0  0  0  0  0  0  0  0  0
    5.1250   -3.6500    0.0000 C   0  0  0  0  0  0  0  0  0  0  0  0
    3.4750   -3.6625    0.0000 O   0  0  0  0  0  0  0  0  0  0  0  0
    5.1250   -6.5125    0.0000 O   0  0  0  0  0  0  0  0  0  0  0  0
    3.4750   -5.0917    0.0000 O   0  0  0  0  0  0  0  0  0  0  0  0
    4.7042   -2.9292    0.0000 C   0  0  0  0  0  0  0  0  0  0  0  0
    3.8792   -5.8000    0.0000 C   0  0  0  0  0  0  0  0  0  0  0  0
    3.8750   -2.9292    0.0000 C   0  0  0  0  0  0  0  0  0  0  0  0
    5.1167   -2.2125    0.0000 C   0  0  0  0  0  0  0  0  0  0  0  0
    3.4625   -2.2125    0.0000 C   0  0  0  0  0  0  0  0  0  0  0  0
    4.7042   -1.5000    0.0000 C   0  0  0  0  0  0  0  0  0  0  0  0
    3.8750   -1.5000    0.0000 C   0  0  0  0  0  0  0  0  0  0  0  0
  2  1  1  0
  3  1  1  0
  4  3  1  0
  5  1  1  0
  6  2  2  0
  7  4  2  0
  8  2  1  0
  9  5  1  0
 10  4  1  0
 11  9  2  0
 12  9  1  0
 13 11  1  0
 14 12  2  0
 15 14  1  0
 15 13  2  0
M  END
>  <ID>  (1682) 


>  <MOLENAME>  (1682) 
ACETYLPHENYLALANINE

>  <therap>  (1682) 
nan

>  <ref>  (1682) 
nan

>  <cas#>  (1682) 
nan

>  <source>  (1682) 
synthetic

>  <status>  (1682) 
undetermined activity

>  <tradename>  (1682) 
nan

>  <SMILES>  (1682) 
CC(=O)NC(Cc1ccccc1)C(=O)O

>  <standardized_failed>  (1682) 
False

$$$$

     RDKit          2D

 20 22  0  0  0  0  0  0  0  0999 V2000
    4.6667   -1.5375    0.0000 C   0  0  0  0  0  0  0  0  0  0  0  0
    3.9542   -1.9542    0.0000 C   0  0  0  0  0  0  0  0  0  0  0  0
    3.2375   -1.5417    0.0000 C   0  0  0  0  0  0  0  0  0  0  0  0
    4.6625   -0.7042    0.0000 C   0  0  0  0  0  0  0  0  0  0  0  0
    3.9417   -0.3000    0.0000 O   0  0  0  0  0  0  0  0  0  0  0  0
    3.2375   -0.7167    0.0000 C   0  0  0  0  0  0  0  0  0  0  0  0
    2.5167   -1.9542    0.0000 C   0  0  0  0  0  0  0  0  0  0  0  0
    2.5167   -0.3042    0.0000 C   0  0  0  0  0  0  0  0  0  0  0  0
    1.8042   -1.5417    0.0000 C   0  0  0  0  0  0  0  0  0  0  0  0
    3.9542   -2.7792    0.0000 O   0  0  0  0  0  0  0  0  0  0  0  0
    1.8042   -0.7167    0.0000 C   0  0  0  0  0  0  0  0  0  0  0  0
    5.3667   -0.2917    0.0000 C   0  0  0  0  0  0  0  0  0  0  0  0
    5.3792   -1.9417    0.0000 O   0  0  0  0  0  0  0  0  0  0  0  0
    2.5250   -2.7792    0.0000 O   0  0  0  0  0  0  0  0  0  0  0  0
    1.0917   -0.3042    0.0000 O   0  0  0  0  0  0  0  0  0  0  0  0
    6.0875   -0.7042    0.0000 C   0  0  0  0  0  0  0  0  0  0  0  0
    5.3667    0.5333    0.0000 C   0  0  0  0  0  0  0  0  0  0  0  0
    6.0750    0.9458    0.0000 C   0  0  0  0  0  0  0  0  0  0  0  0
    6.8000   -0.2875    0.0000 C   0  0  0  0  0  0  0  0  0  0  0  0
    6.7917    0.5375    0.0000 C   0  0  0  0  0  0  0  0  0  0  0  0
  2  1  1  0
  3  2  1  0
  4  1  2  0
  5  4  1  0
  6  5  1  0
  7  3  2  0
  8  6  2  0
  9  7  1  0
 10  2  2  0
 11  8  1  0
 12  4  1  0
 13  1  1  0
 14  7  1  0
 15 11  1  0
 16 12  2  0
 17 12  1  0
 18 17  2  0
 19 16  1  0
 20 18  1  0
  6  3  1  0
 19 20  2  0
 11  9  2  0
M  END
>  <ID>  (1683) 


>  <MOLENAME>  (1683) 
GALANGIN

>  <therap>  (1683) 
CYP1A1 inhibitor

>  <ref>  (1683) 
J Chem Soc 129:2336 (1926); Mutat Res 54:297 (1978); 66:223 (1979); Br J Can 79: 1340 (1999)

>  <cas#>  (1683) 
548-83-4

>  <source>  (1683) 
Alpinia officinarum, A galangal

>  <status>  (1683) 
experimental

>  <tradename>  (1683) 
nan

>  <SMILES>  (1683) 
O=c1c(O)c(-c2ccccc2)oc2cc(O)cc(O)c12

>  <standardized_failed>  (1683) 
False

$$$$

     RDKit          2D

 23 24  0  0  0  0  0  0  0  0999 V2000
   -1.8708    0.6000    0.0000 C   0  0  0  0  0  0  0  0  0  0  0  0
   -3.7500    0.6000    0.0000 C   0  0  0  0  0  0  0  0  0  0  0  0
   -2.8125    1.1458    0.0000 C   0  0  0  0  0  0  0  0  0  0  0  0
   -3.7500   -0.4792    0.0000 C   0  0  0  0  0  0  0  0  0  0  0  0
   -0.9333    1.1708    0.0000 C   0  0  0  0  0  0  0  0  0  0  0  0
   -1.8708   -0.4792    0.0000 C   0  0  0  0  0  0  0  0  0  0  0  0
   -2.8125   -1.0167    0.0000 C   0  0  0  0  0  0  0  0  0  0  0  0
    0.0042    0.6333    0.0000 C   0  0  0  0  0  0  0  0  0  0  0  0
   -0.9333    2.2500    0.0000 O   0  0  0  0  0  0  0  0  0  0  0  0
    0.0042   -0.4500    0.0000 C   0  0  0  0  0  0  0  0  0  0  0  0
    0.9500    1.1708    0.0000 C   0  0  0  0  0  0  0  0  0  0  0  0
   -4.6958    1.1458    0.0000 O   0  0  0  0  0  0  0  0  0  0  0  0
   -2.8125    2.2208    0.0000 O   0  0  0  0  0  0  0  0  0  0  0  0
   -4.7208   -1.0167    0.0000 O   0  0  0  0  0  0  0  0  0  0  0  0
   -2.7958   -2.1000    0.0000 O   0  0  0  0  0  0  0  0  0  0  0  0
    1.8875   -0.4500    0.0000 C   0  0  0  0  0  0  0  0  0  0  0  0
    0.9500   -0.9875    0.0000 C   0  0  0  0  0  0  0  0  0  0  0  0
    1.8875    0.6333    0.0000 C   0  0  0  0  0  0  0  0  0  0  0  0
    2.8292   -1.0167    0.0000 O   0  0  0  0  0  0  0  0  0  0  0  0
   -4.6958    2.2500    0.0000 C   0  0  0  0  0  0  0  0  0  0  0  0
   -4.7333   -2.1000    0.0000 C   0  0  0  0  0  0  0  0  0  0  0  0
    3.7667   -0.4500    0.0000 C   0  0  0  0  0  0  0  0  0  0  0  0
    4.7042   -0.9875    0.0000 C   0  0  0  0  0  0  0  0  0  0  0  0
  2  3  2  0
  3  1  1  0
  4  7  2  0
  5  1  1  0
  6  1  2  0
  7  6  1  0
  8  5  1  0
  9  5  2  0
 10  8  2  0
 11  8  1  0
 12  2  1  0
 13  3  1  0
 14  4  1  0
 15  7  1  0
 16 18  1  0
 17 10  1  0
 18 11  2  0
 19 16  1  0
 20 12  1  0
 21 14  1  0
 22 19  1  0
 23 22  1  0
  4  2  1  0
 17 16  2  0
M  END
>  <ID>  (1684) 


>  <MOLENAME>  (1684) 
2.5-DIHYDROXY-3.4-DIMETHOXY-4'-ETHOXYBENZOPHENONE

>  <therap>  (1684) 
nan

>  <ref>  (1684) 
nan

>  <cas#>  (1684) 
nan

>  <source>  (1684) 
derivative

>  <status>  (1684) 
undetermined activity

>  <tradename>  (1684) 
nan

>  <SMILES>  (1684) 
CCOc1ccc(C(=O)c2cc(O)c(OC)c(OC)c2O)cc1

>  <standardized_failed>  (1684) 
False

$$$$

     RDKit          2D

 25 28  0  0  0  0  0  0  0  0999 V2000
    0.9667    0.0708    0.0000 C   0  0  0  0  0  0  0  0  0  0  0  0
    0.0500    0.6125    0.0000 C   0  0  0  0  0  0  0  0  0  0  0  0
   -0.8958    0.0708    0.0000 C   0  0  0  0  0  0  0  0  0  0  0  0
    1.8875    0.6125    0.0000 C   0  0  0  0  0  0  0  0  0  0  0  0
    1.8875    1.6625    0.0000 C   0  0  0  0  0  0  0  0  0  0  0  0
    0.0500    1.6625    0.0000 C   0  0  0  0  0  0  0  0  0  0  0  0
    0.9667    2.2083    0.0000 O   0  0  0  0  0  0  0  0  0  0  0  0
   -1.8125    0.6125    0.0000 C   0  0  0  0  0  0  0  0  0  0  0  0
   -0.8958   -1.0042    0.0000 C   0  0  0  0  0  0  0  0  0  0  0  0
   -1.8125    1.6625    0.0000 O   0  0  0  0  0  0  0  0  0  0  0  0
   -2.7333    0.0708    0.0000 C   0  0  0  0  0  0  0  0  0  0  0  0
   -1.8125   -1.5167    0.0000 C   0  0  0  0  0  0  0  0  0  0  0  0
   -2.7333   -1.0042    0.0000 C   0  0  0  0  0  0  0  0  0  0  0  0
    2.8042    2.2083    0.0000 C   0  0  0  0  0  0  0  0  0  0  0  0
    2.8042    0.0708    0.0000 C   0  0  0  0  0  0  0  0  0  0  0  0
   -0.8958    2.2083    0.0000 C   0  0  0  0  0  0  0  0  0  0  0  0
    0.9667   -1.0042    0.0000 O   0  0  0  0  0  0  0  0  0  0  0  0
    3.7292    1.6625    0.0000 C   0  0  0  0  0  0  0  0  0  0  0  0
    3.7292    0.6125    0.0000 C   0  0  0  0  0  0  0  0  0  0  0  0
   -1.8125   -2.6000    0.0000 O   0  0  0  0  0  0  0  0  0  0  0  0
   -3.6708   -1.5500    0.0000 O   0  0  0  0  0  0  0  0  0  0  0  0
    4.6667    2.2333    0.0000 O   0  0  0  0  0  0  0  0  0  0  0  0
   -0.8958   -3.1375    0.0000 C   0  0  0  0  0  0  0  0  0  0  0  0
   -4.6125   -1.0042    0.0000 C   0  0  0  0  0  0  0  0  0  0  0  0
    4.6667    3.3125    0.0000 C   0  0  0  0  0  0  0  0  0  0  0  0
  2  1  1  1
  3  2  1  0
  4  1  1  0
  5  4  2  0
  6  2  1  0
  7  5  1  0
  8  3  2  0
  9  3  1  0
 10 16  1  0
 11  8  1  0
 12  9  2  0
 13 12  1  0
 14  5  1  0
 15  4  1  0
  6 16  1  1
 17  1  2  0
 18 19  1  0
 19 15  2  0
 20 12  1  0
 21 13  1  0
 22 18  1  0
 23 20  1  0
 24 21  1  0
 25 22  1  0
  6  7  1  0
 18 14  2  0
  8 10  1  0
 13 11  2  0
M  END
>  <ID>  (1685) 


>  <MOLENAME>  (1685) 
MUNDOSERONE

>  <therap>  (1685) 
nan

>  <ref>  (1685) 
Proc Chem Soc 1960:176; 1969:177 

>  <cas#>  (1685) 
3564-85-0

>  <source>  (1685) 
Mundulea suberosa; mp 156-161 C

>  <status>  (1685) 
undetermined activity

>  <tradename>  (1685) 
nan

>  <SMILES>  (1685) 
COc1cc2c(cc1)C(=O)[C@H]1c3c(cc(OC)c(OC)c3)OC[C@H]1O2

>  <standardized_failed>  (1685) 
False

$$$$

     RDKit          2D

 47 51  0  0  0  0  0  0  0  0999 V2000
    8.3875   -5.3500    0.0000 C   0  0  0  0  0  0  0  0  0  0  0  0
    8.8167   -4.6417    0.0000 C   0  0  0  0  0  0  0  0  0  0  0  0
    6.9292   -6.1917    0.0000 C   0  0  0  0  0  0  0  0  0  0  0  0
    8.3875   -6.1917    0.0000 C   0  0  0  0  0  0  0  0  0  0  0  0
    7.6542   -6.6125    0.0000 C   0  0  0  0  0  0  0  0  0  0  0  0
    6.9292   -5.3542    0.0000 C   0  0  0  0  0  0  0  0  0  0  0  0
    7.6542   -4.9292    0.0000 O   0  0  0  0  0  0  0  0  0  0  0  0
    9.6167   -4.8292    0.0000 O   0  0  0  0  0  0  0  0  0  0  0  0
    5.5042   -5.3542    0.0000 C   0  0  0  0  0  0  0  0  0  0  0  0
    5.5042   -6.1917    0.0000 C   0  0  0  0  0  0  0  0  0  0  0  0
    6.2042   -6.5792    0.0000 C   0  0  0  0  0  0  0  0  0  0  0  0
    6.2042   -4.9417    0.0000 C   0  0  0  0  0  0  0  0  0  0  0  0
    8.9292   -6.1167    0.0000 C   0  0  0  0  0  0  0  0  0  0  0  0
    9.6875   -5.6542    0.0000 C   0  0  0  0  0  0  0  0  0  0  0  0
    8.2542   -4.0875    0.0000 C   0  0  0  0  0  0  0  0  0  0  0  0
    4.7917   -6.5792    0.0000 C   0  0  0  0  0  0  0  0  0  0  0  0
    4.7917   -4.9417    0.0000 O   0  0  0  0  0  0  0  0  0  0  0  0
    9.0667   -3.6792    0.0000 C   0  0  0  0  0  0  0  0  0  0  0  0
    9.7792   -3.2667    0.0000 C   0  0  0  0  0  0  0  0  0  0  0  0
    6.1917   -4.1167    0.0000 C   0  0  0  0  0  0  0  0  0  0  0  0
   10.5792   -2.0625    0.0000 C   0  0  0  0  0  0  0  0  0  0  0  0
    9.7792   -2.4500    0.0000 C   0  0  0  0  0  0  0  0  0  0  0  0
    4.0917   -6.1917    0.0000 C   0  0  0  0  0  0  0  0  0  0  0  0
    4.0917   -5.3542    0.0000 C   0  0  0  0  0  0  0  0  0  0  0  0
    8.6167   -6.9542    0.0000 C   0  0  0  0  0  0  0  0  0  0  0  0
    5.4792   -3.7042    0.0000 C   0  0  0  0  0  0  0  0  0  0  0  0
    7.6542   -7.4375    0.0000 O   0  0  0  0  0  0  0  0  0  0  0  0
    7.4292   -4.0792    0.0000 O   0  0  0  0  0  0  0  0  0  0  0  0
   11.2000   -2.4000    0.0000 O   0  0  0  0  0  0  0  0  0  0  0  0
    5.4667   -2.8792    0.0000 C   0  0  0  0  0  0  0  0  0  0  0  0
    1.2667   -5.3417    0.0000 C   0  0  0  0  0  0  0  0  0  0  0  0
    1.9667   -4.9292    0.0000 C   0  0  0  0  0  0  0  0  0  0  0  0
    6.2042   -7.3917    0.0000 O   0  0  0  0  0  0  0  0  0  0  0  0
    8.4917   -3.1417    0.0000 O   0  0  0  0  0  0  0  0  0  0  0  0
   10.6667   -1.1542    0.0000 O   0  0  0  0  0  0  0  0  0  0  0  0
    9.7417   -6.3667    0.0000 C   0  0  0  0  0  0  0  0  0  0  0  0
    9.5042   -7.3792    0.0000 C   0  0  0  0  0  0  0  0  0  0  0  0
   10.4875   -5.3667    0.0000 C   0  0  0  0  0  0  0  0  0  0  0  0
   10.3000   -6.2667    0.0000 C   0  0  0  0  0  0  0  0  0  0  0  0
    2.6792   -5.3542    0.0000 C   0  0  0  0  0  0  0  0  0  0  0  0
    3.3792   -4.9417    0.0000 C   0  0  0  0  0  0  0  0  0  0  0  0
    9.1125   -2.0250    0.0000 C   0  0  0  0  0  0  0  0  0  0  0  0
    4.0917   -4.3792    0.0000 C   0  0  0  0  0  0  0  0  0  0  0  0
    6.1917   -2.4667    0.0000 C   0  0  0  0  0  0  0  0  0  0  0  0
    4.7542   -2.4667    0.0000 C   0  0  0  0  0  0  0  0  0  0  0  0
    1.2667   -6.0667    0.0000 C   0  0  0  0  0  0  0  0  0  0  0  0
    0.5542   -4.9292    0.0000 C   0  0  0  0  0  0  0  0  0  0  0  0
  2  1  1  0
  3  6  2  0
  4  1  1  0
  5  4  1  0
  6  7  1  0
  7  1  1  0
  8  2  1  0
  9 12  2  0
 10  9  1  0
 11  3  1  0
 12  6  1  0
 13  1  1  0
 14 13  1  0
  2 15  1  0
 16 10  1  0
 17  9  1  0
  2 18  1  1
 19 18  1  0
 20 12  1  0
 21 22  1  0
 22 19  2  0
 23 24  1  0
 24 17  1  0
 25  4  2  0
 26 20  1  0
 27  5  2  0
 28 15  2  0
 29 21  2  0
 30 26  2  0
 31 32  2  0
 32 40  1  0
 33 11  1  0
 34 15  1  0
 35 21  1  0
 36 13  1  0
 37 36  1  0
 38 14  1  0
 39 14  1  0
 40 41  1  0
 41 24  1  0
 42 22  1  0
 43 24  1  0
 44 30  1  0
 45 30  1  0
 46 31  1  0
 47 31  1  0
  8 14  1  0
  5  3  1  0
 37 25  1  0
 10 11  2  0
 16 23  2  0
M  END
>  <ID>  (1686) 


>  <MOLENAME>  (1686) 
GARCINOLIC ACID

>  <therap>  (1686) 
nan

>  <ref>  (1686) 
Ann Chim 56: 232 (1966)

>  <cas#>  (1686) 
nan

>  <source>  (1686) 
Garcinia spp.; also hydrolysis product of gambogic acid

>  <status>  (1686) 
undetermined activity

>  <tradename>  (1686) 
nan

>  <SMILES>  (1686) 
CC(C)=CCCC1(C)C=Cc2c(O)c3c(OC45C(=CCCC4C(C)(C)O[C@@]5(C/C=C(\C)C(=O)O)C(=O)O)C3=O)c(CC=C(C)C)c2O1

>  <standardized_failed>  (1686) 
False

$$$$

     RDKit          2D

 14 13  0  0  0  0  0  0  0  0999 V2000
   -0.6917    0.4083    0.0000 O   0  0  0  0  0  0  0  0  0  0  0  0
    0.0208    0.8208    0.0000 C   0  0  0  0  0  0  0  0  0  0  0  0
    0.7333    0.4125    0.0000 C   0  0  0  0  0  0  0  0  0  0  0  0
    1.4458    0.8250    0.0000 C   0  0  0  0  0  0  0  0  0  0  0  0
    2.1583    0.4167    0.0000 C   0  0  0  0  0  0  0  0  0  0  0  0
    2.8708    0.8292    0.0000 C   0  0  0  0  0  0  0  0  0  0  0  0
    3.5833    0.4208    0.0000 C   0  0  0  0  0  0  0  0  0  0  0  0
    4.2958    0.8333    0.0000 C   0  0  0  0  0  0  0  0  0  0  0  0
    5.0083    0.4250    0.0000 O   0  0  0  0  0  0  0  0  0  0  0  0
    0.7351   -0.4125    0.0000 O   0  0  0  0  0  0  0  0  0  0  0  0
    1.4440    1.6500    0.0000 O   0  0  0  0  0  0  0  0  0  0  0  0
    2.1601   -0.4083    0.0000 O   0  0  0  0  0  0  0  0  0  0  0  0
    3.5851   -0.4042    0.0000 O   0  0  0  0  0  0  0  0  0  0  0  0
    2.8690    1.6542    0.0000 O   0  0  0  0  0  0  0  0  0  0  0  0
  3  4  1  0
  7  8  1  0
  8  9  1  0
  4  5  1  0
  3 10  1  1
  2  3  1  0
  4 11  1  1
  5  6  1  0
  5 12  1  1
  1  2  1  0
  7 13  1  1
  6  7  1  0
  6 14  1  6
M  END
>  <ID>  (1687) 


>  <MOLENAME>  (1687) 
PERSEITOL

>  <therap>  (1687) 
nan

>  <ref>  (1687) 
J Am Chem Soc 61: 339 (1939); Carbohydr Res 150: 35 (1986)

>  <cas#>  (1687) 
527-06-0

>  <source>  (1687) 
Persia spp.

>  <status>  (1687) 
undetermined activity

>  <tradename>  (1687) 
nan

>  <SMILES>  (1687) 
OC[C@H](O)[C@@H](O)[C@H](O)[C@H](O)[C@H](O)CO

>  <standardized_failed>  (1687) 
False

$$$$

     RDKit          2D

 33 37  0  0  0  0  0  0  0  0999 V2000
    1.7667   -1.4667    0.0000 C   0  0  0  0  0  0  0  0  0  0  0  0
    2.4792   -1.0417    0.0000 C   0  0  0  0  0  0  0  0  0  0  0  0
    1.7667   -2.2917    0.0000 C   0  0  0  0  0  0  0  0  0  0  0  0
    3.1917   -1.4667    0.0000 C   0  0  0  0  0  0  0  0  0  0  0  0
    3.9042   -1.0542    0.0000 C   0  0  0  0  0  0  0  0  0  0  0  0
    3.9167   -0.2292    0.0000 C   0  0  0  0  0  0  0  0  0  0  0  0
    1.0500   -2.7000    0.0000 C   0  0  0  0  0  0  0  0  0  0  0  0
    1.0500   -1.0417    0.0000 C   0  0  0  0  0  0  0  0  0  0  0  0
    0.3375   -2.2917    0.0000 C   0  0  0  0  0  0  0  0  0  0  0  0
    4.6375    0.1833    0.0000 C   0  0  0  0  0  0  0  0  0  0  0  0
    0.3375   -1.4667    0.0000 C   0  0  0  0  0  0  0  0  0  0  0  0
    2.4792   -2.7042    0.0000 C   0  0  0  0  0  0  0  0  0  0  0  0
    3.2000   -2.2917    0.0000 C   0  0  0  0  0  0  0  0  0  0  0  0
    5.3792    1.4125    0.0000 C   0  0  0  0  0  0  0  0  0  0  0  0
    4.6417    1.0083    0.0000 C   0  0  0  0  0  0  0  0  0  0  0  0
    5.3500   -0.2500    0.0000 C   0  0  0  0  0  0  0  0  0  0  0  0
    2.4792   -0.2167    0.0000 C   0  0  0  0  0  0  0  0  0  0  0  0
    5.3917    2.2458    0.0000 C   0  0  0  0  0  0  0  0  0  0  0  0
    3.2000    0.1875    0.0000 C   0  0  0  0  0  0  0  0  0  0  0  0
    4.6167   -1.4792    0.0000 C   0  0  0  0  0  0  0  0  0  0  0  0
    5.3375   -1.0750    0.0000 C   0  0  0  0  0  0  0  0  0  0  0  0
   -0.3833   -1.0500    0.0000 O   0  0  0  0  0  0  0  0  0  0  0  0
    6.0917    0.9833    0.0000 C   0  0  0  0  0  0  0  0  0  0  0  0
    6.0750    0.1500    0.0000 C   0  0  0  0  0  0  0  0  0  0  0  0
    4.6792    2.6708    0.0000 O   0  0  0  0  0  0  0  0  0  0  0  0
   -0.3833   -2.7042    0.0000 O   0  0  0  0  0  0  0  0  0  0  0  0
    1.7542   -0.6292    0.0000 C   0  0  0  0  0  0  0  0  0  0  0  0
    3.8917   -1.8792    0.0000 C   0  0  0  0  0  0  0  0  0  0  0  0
    3.9042    0.6083    0.0000 C   0  0  0  0  0  0  0  0  0  0  0  0
    6.1167    2.6458    0.0000 O   0  0  0  0  0  0  0  0  0  0  0  0
    1.0417   -3.5250    0.0000 C   0  0  0  0  0  0  0  0  0  0  0  0
    4.6542    1.8250    0.0000 C   0  0  0  0  0  0  0  0  0  0  0  0
    5.9292   -0.8375    0.0000 C   0  0  0  0  0  0  0  0  0  0  0  0
  2  1  1  0
  3  1  1  0
  4  2  1  0
  5  4  1  0
  6 19  1  0
  7  3  1  0
  8  1  2  0
  9 11  1  0
 10  6  1  0
 11  8  1  0
 12  3  2  0
 13 12  1  0
 14 15  1  0
 10 15  1  6
 16 10  1  0
 17  2  1  0
 14 18  1  0
 19 17  1  0
 20  5  1  0
 21 20  1  0
 22 11  2  0
 23 24  1  0
 24 16  1  0
 25 18  2  0
 26  9  1  0
  2 27  1  1
  5 28  1  1
  6 29  1  6
 30 18  1  0
 31  7  1  0
 14 32  1  1
 16 33  1  1
  9  7  2  0
  4 13  2  0
  5  6  1  0
 21 16  1  0
 14 23  1  0
M  END
>  <ID>  (1688) 


>  <MOLENAME>  (1688) 
CELASTROL

>  <therap>  (1688) 
antineoplastic, NO synthesis inhibitor, chaperone stimulant

>  <ref>  (1688) 
J Chem Soc 1963:2884; 1972:330; J Org Chem 30:1729 (1965); J Biol Chem 279:56053 (2004); J Mol Med 85:1421 (2007); Mol Biol Cell 19:1104 (2008)

>  <cas#>  (1688) 
34157-83-0

>  <source>  (1688) 
Celastrus scandens & Tripterygium wilfordii

>  <status>  (1688) 
experimental

>  <tradename>  (1688) 
nan

>  <SMILES>  (1688) 
CC1=C(O)C(=O)C=C2C1=CC=C1[C@@]3(C)CC[C@@]4(C)CC[C@@](C)(C(=O)O)C[C@H]4[C@]3(C)CC[C@@]21C

>  <standardized_failed>  (1688) 
False

$$$$

     RDKit          2D

 15 16  0  0  0  0  0  0  0  0999 V2000
    3.3792   -2.2667    0.0000 C   0  0  0  0  0  0  0  0  0  0  0  0
    3.3875   -1.4292    0.0000 C   0  0  0  0  0  0  0  0  0  0  0  0
    4.1000   -2.6792    0.0000 O   0  0  0  0  0  0  0  0  0  0  0  0
    4.1042   -1.0125    0.0000 C   0  0  0  0  0  0  0  0  0  0  0  0
    2.6667   -1.0167    0.0000 C   0  0  0  0  0  0  0  0  0  0  0  0
    4.8250   -2.2667    0.0000 C   0  0  0  0  0  0  0  0  0  0  0  0
    2.6667   -2.6750    0.0000 C   0  0  0  0  0  0  0  0  0  0  0  0
    4.8250   -1.4292    0.0000 C   0  0  0  0  0  0  0  0  0  0  0  0
    1.9542   -1.4375    0.0000 C   0  0  0  0  0  0  0  0  0  0  0  0
    1.9542   -2.2625    0.0000 C   0  0  0  0  0  0  0  0  0  0  0  0
    5.5375   -2.6792    0.0000 O   0  0  0  0  0  0  0  0  0  0  0  0
    2.6667   -0.1917    0.0000 O   0  0  0  0  0  0  0  0  0  0  0  0
    1.2417   -2.6750    0.0000 O   0  0  0  0  0  0  0  0  0  0  0  0
    3.3792    0.2208    0.0000 C   0  0  0  0  0  0  0  0  0  0  0  0
    0.5292   -2.2625    0.0000 C   0  0  0  0  0  0  0  0  0  0  0  0
  2  1  2  0
  3  1  1  0
  4  2  1  0
  5  2  1  0
  6  3  1  0
  7  1  1  0
  8  6  1  0
  9 10  1  0
 10  7  2  0
 11  6  2  0
 12  5  1  0
 13 10  1  0
 14 12  1  0
 15 13  1  0
  9  5  2  0
  8  4  2  0
M  END
>  <ID>  (1689) 


>  <MOLENAME>  (1689) 
CITROPTEN

>  <therap>  (1689) 
photosensitizing agent

>  <ref>  (1689) 
Indian J Chem 13: 835 (1975)

>  <cas#>  (1689) 
487-06-9

>  <source>  (1689) 
Bergamot oil

>  <status>  (1689) 
experimental

>  <tradename>  (1689) 
nan

>  <SMILES>  (1689) 
COc1cc2c(ccc(=O)o2)c(OC)c1

>  <standardized_failed>  (1689) 
False

$$$$

     RDKit          2D

 27 32  0  0  0  0  0  0  0  0999 V2000
    1.7292    1.3458    0.0000 C   0  0  0  0  0  0  0  0  0  0  0  0
    0.9417    0.2708    0.0000 N   0  0  0  0  0  0  0  0  0  0  0  0
    1.7292    0.5208    0.0000 C   0  0  0  0  0  0  0  0  0  0  0  0
    2.2667    2.5708    0.0000 N   0  0  0  0  0  0  0  0  0  0  0  0
    2.4417    1.7583    0.0000 C   0  0  0  0  0  0  0  0  0  0  0  0
    2.4417    0.1083    0.0000 C   0  0  0  0  0  0  0  0  0  0  0  0
    0.7667   -0.5375    0.0000 C   0  0  0  0  0  0  0  0  0  0  0  0
    0.4667    0.9375    0.0000 C   0  0  0  0  0  0  0  0  0  0  0  0
    0.9417    1.6000    0.0000 C   0  0  0  0  0  0  0  0  0  0  0  0
    3.1542    0.5208    0.0000 C   0  0  0  0  0  0  0  0  0  0  0  0
    2.3167   -0.7125    0.0000 C   0  0  0  0  0  0  0  0  0  0  0  0
    3.8292    1.6500    0.0000 C   0  0  0  0  0  0  0  0  0  0  0  0
    1.5542   -1.0167    0.0000 C   0  0  0  0  0  0  0  0  0  0  0  0
    3.1542    1.3458    0.0000 C   0  0  0  0  0  0  0  0  0  0  0  0
    2.8667    1.8708    0.0000 C   0  0  0  0  0  0  0  0  0  0  0  0
    1.1167    1.9083    0.0000 C   0  0  0  0  0  0  0  0  0  0  0  0
    1.4417    2.6458    0.0000 C   0  0  0  0  0  0  0  0  0  0  0  0
    3.4292    0.1208    0.0000 O   0  0  0  0  0  0  0  0  0  0  0  0
   -0.0208   -0.8042    0.0000 O   0  0  0  0  0  0  0  0  0  0  0  0
    4.5542    1.1833    0.0000 C   0  0  0  0  0  0  0  0  0  0  0  0
    3.9667    2.9708    0.0000 I   0  0  0  0  0  0  0  0  0  0  0  0
    2.6792    3.2958    0.0000 C   0  0  0  0  0  0  0  0  0  0  0  0
    4.2667    0.3708    0.0000 C   0  0  0  0  0  0  0  0  0  0  0  0
   -0.3583    1.0250    0.0000 C   0  0  0  0  0  0  0  0  0  0  0  0
    0.6042    2.3583    0.0000 C   0  0  0  0  0  0  0  0  0  0  0  0
   -0.6958    1.7833    0.0000 C   0  0  0  0  0  0  0  0  0  0  0  0
   -0.2083    2.4458    0.0000 C   0  0  0  0  0  0  0  0  0  0  0  0
  2  3  1  0
  3  1  1  0
  4  5  1  0
  5  1  1  0
  6  3  1  0
  7  2  1  0
  8  9  2  0
  9  1  1  0
 10 14  1  6
  6 11  1  1
 10 12  1  0
 13 11  1  0
 14  5  1  0
 15  4  1  0
  1 16  1  1
 17 16  1  0
 18 11  1  0
 19  7  2  0
 20 12  2  0
 22  4  1  0
 23 18  1  0
 24  8  1  0
 25  9  1  0
 26 27  1  0
 27 25  2  0
  4 17  1  0
  2  8  1  0
 10  6  1  0
 12 15  1  0
 26 24  2  0
 13  7  1  0
 20 23  1  0
M  CHG  2   4   1  21  -1
M  END
>  <ID>  (1690) 


>  <MOLENAME>  (1690) 
STRYCHNINE METHIODIDE

>  <therap>  (1690) 
neuromuscular blocker

>  <ref>  (1690) 
J Physiol 82:432 (1934); Phytochemistry 11:2547 (1972)

>  <cas#>  (1690) 
nan

>  <source>  (1690) 
derivative

>  <status>  (1690) 
experimental

>  <tradename>  (1690) 
nan

>  <SMILES>  (1690) 
C[N+]12CC[C@@]34c5c(cccc5)N5C(=O)CC6OCC=C(C1)[C@H](CC32)[C@@H]6C54

>  <standardized_failed>  (1690) 
False

$$$$

     RDKit          2D

 10 10  0  0  0  0  0  0  0  0999 V2000
    2.1292   -1.2917    0.0000 N   0  0  0  0  0  0  0  0  0  0  0  0
    2.8500   -0.0542    0.0000 C   0  0  0  0  0  0  0  0  0  0  0  0
    3.5667    0.3583    0.0000 C   0  0  0  0  0  0  0  0  0  0  0  0
    2.8500   -0.8792    0.0000 C   0  0  0  0  0  0  0  0  0  0  0  0
    3.5750    1.1958    0.0000 O   0  0  0  0  0  0  0  0  0  0  0  0
    4.2875   -0.0542    0.0000 O   0  0  0  0  0  0  0  0  0  0  0  0
    1.4167   -0.8792    0.0000 C   0  0  0  0  0  0  0  0  0  0  0  0
    2.1250   -2.1167    0.0000 C   0  0  0  0  0  0  0  0  0  0  0  0
    2.1292    0.3708    0.0000 C   0  0  0  0  0  0  0  0  0  0  0  0
    1.4167   -0.0542    0.0000 C   0  0  0  0  0  0  0  0  0  0  0  0
  2  4  1  0
  3  2  1  0
  4  1  2  0
  5  3  1  0
  6  3  2  0
  7  1  1  0
  8  1  1  0
  9 10  1  0
 10  7  2  0
  9  2  2  0
M  CHG  2   1   1   5  -1
M  END
>  <ID>  (1691) 


>  <MOLENAME>  (1691) 
TRIGONELLINE

>  <therap>  (1691) 
antihyperglycemic

>  <ref>  (1691) 
J Org Chem 26: 1318 (1961)

>  <cas#>  (1691) 
535-83-1

>  <source>  (1691) 
Trigonella foenumgraecum and in coffee beans

>  <status>  (1691) 
experimental

>  <tradename>  (1691) 
nan

>  <SMILES>  (1691) 
C[n+]1cc(C(=O)[O-])ccc1

>  <standardized_failed>  (1691) 
False

$$$$

     RDKit          2D

 14 15  0  0  0  0  0  0  0  0999 V2000
    2.9792   -2.7917    0.0000 C   0  0  0  0  0  0  0  0  0  0  0  0
    3.6917   -1.5500    0.0000 C   0  0  0  0  0  0  0  0  0  0  0  0
    3.7000   -3.2042    0.0000 O   0  0  0  0  0  0  0  0  0  0  0  0
    4.4125   -2.7875    0.0000 C   0  0  0  0  0  0  0  0  0  0  0  0
    2.9792   -1.9667    0.0000 C   0  0  0  0  0  0  0  0  0  0  0  0
    4.4042   -1.9542    0.0000 C   0  0  0  0  0  0  0  0  0  0  0  0
    2.2667   -3.2042    0.0000 C   0  0  0  0  0  0  0  0  0  0  0  0
    2.2667   -1.5542    0.0000 C   0  0  0  0  0  0  0  0  0  0  0  0
    5.1292   -3.1917    0.0000 O   0  0  0  0  0  0  0  0  0  0  0  0
    1.5542   -2.7917    0.0000 C   0  0  0  0  0  0  0  0  0  0  0  0
    1.5542   -1.9667    0.0000 C   0  0  0  0  0  0  0  0  0  0  0  0
    3.6875   -0.7250    0.0000 C   0  0  0  0  0  0  0  0  0  0  0  0
    0.8375   -3.2042    0.0000 O   0  0  0  0  0  0  0  0  0  0  0  0
    0.1250   -2.7917    0.0000 C   0  0  0  0  0  0  0  0  0  0  0  0
  2  5  1  0
  3  1  1  0
  4  3  1  0
  5  1  2  0
  6  2  2  0
  7  1  1  0
  8  5  1  0
  9  4  2  0
 10  7  2  0
 11 10  1  0
 12  2  1  0
 13 10  1  0
 14 13  1  0
 11  8  2  0
  6  4  1  0
M  END
>  <ID>  (1692) 


>  <MOLENAME>  (1692) 
HYMECROMONE METHYL ETHER

>  <therap>  (1692) 
nan

>  <ref>  (1692) 
Indian J Chem 15:94, 492 (1977)

>  <cas#>  (1692) 
2555-28-4

>  <source>  (1692) 
Dalbergia volubilis, Eupatorium pauciflorum

>  <status>  (1692) 
undetermined activity

>  <tradename>  (1692) 
nan

>  <SMILES>  (1692) 
COc1cc2c(cc1)c(C)cc(=O)o2

>  <standardized_failed>  (1692) 
False

$$$$

     RDKit          2D

 13 14  0  0  0  0  0  0  0  0999 V2000
    1.9500   -2.4667    0.0000 C   0  0  0  0  0  0  0  0  0  0  0  0
    1.9500   -3.2917    0.0000 C   0  0  0  0  0  0  0  0  0  0  0  0
    2.6667   -3.7042    0.0000 N   0  0  0  0  0  0  0  0  0  0  0  0
    3.3750   -2.4542    0.0000 N   0  0  0  0  0  0  0  0  0  0  0  0
    2.6542   -2.0500    0.0000 C   0  0  0  0  0  0  0  0  0  0  0  0
    3.3792   -3.2875    0.0000 C   0  0  0  0  0  0  0  0  0  0  0  0
    1.2292   -3.7042    0.0000 N   0  0  0  0  0  0  0  0  0  0  0  0
    1.2292   -2.0542    0.0000 N   0  0  0  0  0  0  0  0  0  0  0  0
    0.5167   -2.4667    0.0000 C   0  0  0  0  0  0  0  0  0  0  0  0
    0.5167   -3.2917    0.0000 C   0  0  0  0  0  0  0  0  0  0  0  0
    2.6542   -1.2250    0.0000 O   0  0  0  0  0  0  0  0  0  0  0  0
   -0.1958   -2.0542    0.0000 O   0  0  0  0  0  0  0  0  0  0  0  0
    4.0917   -3.7000    0.0000 N   0  0  0  0  0  0  0  0  0  0  0  0
  2  1  2  0
  3  2  1  0
  4  5  1  0
  5  1  1  0
  6  4  1  0
  7  2  1  0
  8  1  1  0
  9  8  1  0
 10  9  1  0
 11  5  2  0
 12  9  2  0
 13  6  1  0
 10  7  2  0
  6  3  2  0
M  END
>  <ID>  (1693) 


>  <MOLENAME>  (1693) 
XANTHOPTERIN

>  <therap>  (1693) 
cell proliferation inhibitor 

>  <ref>  (1693) 
J Het Chem 29:583 (1992); Int J Biochem 25:1873 (1993)

>  <cas#>  (1693) 
119-44-8

>  <source>  (1693) 
human urine, butterfly wing pigment 

>  <status>  (1693) 
experimental

>  <tradename>  (1693) 
nan

>  <SMILES>  (1693) 
Nc1nc2c([nH]c(=O)cn2)c(=O)[nH]1

>  <standardized_failed>  (1693) 
False

$$$$

     RDKit          2D

 24 27  0  0  0  0  0  0  0  0999 V2000
   -0.4333   -1.6750    0.0000 C   0  0  0  0  0  0  0  0  0  0  0  0
    1.7917   -0.3875    0.0000 C   0  0  0  0  0  0  0  0  0  0  0  0
    0.3042   -1.2375    0.0000 C   0  0  0  0  0  0  0  0  0  0  0  0
    1.7917   -1.2375    0.0000 C   0  0  0  0  0  0  0  0  0  0  0  0
    1.0417   -1.6750    0.0000 C   0  0  0  0  0  0  0  0  0  0  0  0
   -0.4333   -2.5250    0.0000 C   0  0  0  0  0  0  0  0  0  0  0  0
    2.6042   -0.1125    0.0000 C   0  0  0  0  0  0  0  0  0  0  0  0
    1.0417    0.0583    0.0000 C   0  0  0  0  0  0  0  0  0  0  0  0
    0.3042   -0.3875    0.0000 C   0  0  0  0  0  0  0  0  0  0  0  0
   -1.1833   -1.2375    0.0000 C   0  0  0  0  0  0  0  0  0  0  0  0
    2.6042   -1.4917    0.0000 C   0  0  0  0  0  0  0  0  0  0  0  0
    1.0417   -2.5250    0.0000 C   0  0  0  0  0  0  0  0  0  0  0  0
   -3.3583   -2.5125    0.0000 C   0  0  0  0  0  0  0  0  0  0  0  0
   -1.1833   -2.9625    0.0000 C   0  0  0  0  0  0  0  0  0  0  0  0
    0.3042   -2.9625    0.0000 C   0  0  0  0  0  0  0  0  0  0  0  0
    3.0917   -0.8250    0.0000 C   0  0  0  0  0  0  0  0  0  0  0  0
   -2.6458   -2.9292    0.0000 O   0  0  0  0  0  0  0  0  0  0  0  0
    2.8167    0.6875    0.0000 O   0  0  0  0  0  0  0  0  0  0  0  0
   -1.9208   -2.5250    0.0000 C   0  0  0  0  0  0  0  0  0  0  0  0
   -3.3500   -1.6875    0.0000 O   0  0  0  0  0  0  0  0  0  0  0  0
   -1.9208   -1.6750    0.0000 C   0  0  0  0  0  0  0  0  0  0  0  0
   -0.4333   -0.8250    0.0000 C   0  0  0  0  0  0  0  0  0  0  0  0
    1.7792    0.4375    0.0000 C   0  0  0  0  0  0  0  0  0  0  0  0
   -4.0708   -2.9167    0.0000 C   0  0  0  0  0  0  0  0  0  0  0  0
  2  8  1  0
  3  1  1  0
  4  5  1  0
  5  3  1  0
  6  1  1  0
  7  2  1  0
  8  9  1  0
  9  3  1  0
 10  1  1  0
 11  4  1  0
 12 15  1  0
 13 17  1  0
  6 14  1  1
 15  6  1  0
 16 11  1  0
 19 17  1  6
 18  7  2  0
 19 21  1  0
 20 13  2  0
 21 10  1  0
  1 22  1  1
  2 23  1  1
 24 13  1  0
 19 14  1  0
 12  5  1  0
  2  4  1  0
  7 16  1  0
M  END
>  <ID>  (1694) 


>  <MOLENAME>  (1694) 
ANDROSTERONE ACETATE

>  <therap>  (1694) 
androgen

>  <ref>  (1694) 
nan

>  <cas#>  (1694) 
1164-95-0

>  <source>  (1694) 
semisynthetic

>  <status>  (1694) 
experimental

>  <tradename>  (1694) 
nan

>  <SMILES>  (1694) 
CC(=O)O[C@@H]1CC[C@]2(C)C3CC[C@]4(C)C(=O)CCC4C3CC[C@H]2C1

>  <standardized_failed>  (1694) 
False

$$$$

     RDKit          2D

 30 33  0  0  0  0  0  0  0  0999 V2000
    0.0667   -0.6792    0.0000 C   0  0  0  0  0  0  0  0  0  0  0  0
    0.0667    0.2458    0.0000 C   0  0  0  0  0  0  0  0  0  0  0  0
    0.9000   -1.1667    0.0000 C   0  0  0  0  0  0  0  0  0  0  0  0
   -0.7458    0.7333    0.0000 C   0  0  0  0  0  0  0  0  0  0  0  0
   -1.5625    0.2458    0.0000 C   0  0  0  0  0  0  0  0  0  0  0  0
    1.7167   -0.6792    0.0000 C   0  0  0  0  0  0  0  0  0  0  0  0
   -0.7458   -1.1667    0.0000 C   0  0  0  0  0  0  0  0  0  0  0  0
   -1.5625   -0.6792    0.0000 C   0  0  0  0  0  0  0  0  0  0  0  0
    0.9000    0.7333    0.0000 O   0  0  0  0  0  0  0  0  0  0  0  0
    1.7167    0.2458    0.0000 C   0  0  0  0  0  0  0  0  0  0  0  0
   -0.7458    1.6500    0.0000 C   0  0  0  0  0  0  0  0  0  0  0  0
   -2.3708    0.7333    0.0000 O   0  0  0  0  0  0  0  0  0  0  0  0
   -2.3708   -1.1667    0.0000 C   0  0  0  0  0  0  0  0  0  0  0  0
   -1.5625    2.1458    0.0000 C   0  0  0  0  0  0  0  0  0  0  0  0
    2.5292   -1.1667    0.0000 C   0  0  0  0  0  0  0  0  0  0  0  0
   -2.3708    1.6500    0.0000 C   0  0  0  0  0  0  0  0  0  0  0  0
   -3.1833   -0.7000    0.0000 C   0  0  0  0  0  0  0  0  0  0  0  0
    0.9000   -2.0875    0.0000 O   0  0  0  0  0  0  0  0  0  0  0  0
   -3.9958   -1.1667    0.0000 C   0  0  0  0  0  0  0  0  0  0  0  0
   -0.7458   -2.0875    0.0000 O   0  0  0  0  0  0  0  0  0  0  0  0
    3.3375   -0.6792    0.0000 C   0  0  0  0  0  0  0  0  0  0  0  0
    2.5292   -2.0875    0.0000 C   0  0  0  0  0  0  0  0  0  0  0  0
    4.1542   -2.0875    0.0000 C   0  0  0  0  0  0  0  0  0  0  0  0
    4.1542   -1.1667    0.0000 C   0  0  0  0  0  0  0  0  0  0  0  0
    3.3375   -2.5667    0.0000 C   0  0  0  0  0  0  0  0  0  0  0  0
    4.9667   -2.5667    0.0000 O   0  0  0  0  0  0  0  0  0  0  0  0
   -3.1833    1.2125    0.0000 C   0  0  0  0  0  0  0  0  0  0  0  0
   -2.3833    2.5708    0.0000 C   0  0  0  0  0  0  0  0  0  0  0  0
   -4.8125   -0.7000    0.0000 C   0  0  0  0  0  0  0  0  0  0  0  0
   -3.9958   -2.1042    0.0000 C   0  0  0  0  0  0  0  0  0  0  0  0
  2  1  2  0
  3  1  1  0
  4  2  1  0
  5  8  1  0
  6  3  1  0
  7  1  1  0
  8  7  2  0
  9  2  1  0
 10  6  2  0
 11  4  1  0
 12  5  1  0
 13  8  1  0
 14 11  2  0
 15  6  1  0
 16 12  1  0
 17 13  1  0
 18  3  2  0
 19 17  2  0
 20  7  1  0
 21 15  2  0
 22 15  1  0
 23 25  1  0
 24 21  1  0
 25 22  2  0
 26 23  1  0
 27 16  1  0
 28 16  1  0
 29 19  1  0
 30 19  1  0
  4  5  2  0
  9 10  1  0
 14 16  1  0
 24 23  2  0
M  END
>  <ID>  (1695) 


>  <MOLENAME>  (1695) 
OSAJIN

>  <therap>  (1695) 
nan

>  <ref>  (1695) 
J Am Chem Soc 63: 1253 (1941); 68: 406 (1946)

>  <cas#>  (1695) 
482-53-1

>  <source>  (1695) 
Maclura pomifera

>  <status>  (1695) 
undetermined activity

>  <tradename>  (1695) 
nan

>  <SMILES>  (1695) 
CC(C)=CCc1c(O)c2c(occ(-c3ccc(O)cc3)c2=O)c2c1OC(C)(C)C=C2

>  <standardized_failed>  (1695) 
False

$$$$

     RDKit          2D

 32 35  0  0  0  0  0  0  0  0999 V2000
    2.5417   -0.6417    0.0000 O   0  0  0  0  0  0  0  0  0  0  0  0
    1.7917   -1.0542    0.0000 C   0  0  0  0  0  0  0  0  0  0  0  0
    1.7917   -1.8917    0.0000 C   0  0  0  0  0  0  0  0  0  0  0  0
    3.2417   -1.8917    0.0000 C   0  0  0  0  0  0  0  0  0  0  0  0
    3.2417   -1.0542    0.0000 C   0  0  0  0  0  0  0  0  0  0  0  0
    3.9792   -3.1292    0.0000 C   0  0  0  0  0  0  0  0  0  0  0  0
    2.5417   -2.3042    0.0000 C   0  0  0  0  0  0  0  0  0  0  0  0
    4.6875   -3.5417    0.0000 C   0  0  0  0  0  0  0  0  0  0  0  0
    6.1292   -4.3667    0.0000 C   0  0  0  0  0  0  0  0  0  0  0  0
    3.9792   -2.3042    0.0000 O   0  0  0  0  0  0  0  0  0  0  0  0
    1.0792   -2.3042    0.0000 C   0  0  0  0  0  0  0  0  0  0  0  0
    3.9792   -0.6417    0.0000 C   0  0  0  0  0  0  0  0  0  0  0  0
    5.4125   -4.8125    0.0000 C   0  0  0  0  0  0  0  0  0  0  0  0
    6.1292   -3.5417    0.0000 C   0  0  0  0  0  0  0  0  0  0  0  0
    1.0792   -0.6417    0.0000 C   0  0  0  0  0  0  0  0  0  0  0  0
    4.6875   -4.3667    0.0000 C   0  0  0  0  0  0  0  0  0  0  0  0
    5.4125   -3.1292    0.0000 C   0  0  0  0  0  0  0  0  0  0  0  0
    0.3542   -1.8917    0.0000 C   0  0  0  0  0  0  0  0  0  0  0  0
    3.9792    0.1833    0.0000 C   0  0  0  0  0  0  0  0  0  0  0  0
    4.6875    0.6208    0.0000 C   0  0  0  0  0  0  0  0  0  0  0  0
    0.3542   -1.0542    0.0000 C   0  0  0  0  0  0  0  0  0  0  0  0
    5.4125    0.1833    0.0000 C   0  0  0  0  0  0  0  0  0  0  0  0
    3.2417   -3.5417    0.0000 O   0  0  0  0  0  0  0  0  0  0  0  0
    4.6875   -1.0542    0.0000 C   0  0  0  0  0  0  0  0  0  0  0  0
    5.4125   -0.6417    0.0000 C   0  0  0  0  0  0  0  0  0  0  0  0
    6.8292   -4.8125    0.0000 O   0  0  0  0  0  0  0  0  0  0  0  0
    1.0792   -3.1292    0.0000 O   0  0  0  0  0  0  0  0  0  0  0  0
    5.4125   -5.6042    0.0000 O   0  0  0  0  0  0  0  0  0  0  0  0
    6.8292   -3.1292    0.0000 O   0  0  0  0  0  0  0  0  0  0  0  0
    4.6875    1.4208    0.0000 O   0  0  0  0  0  0  0  0  0  0  0  0
   -0.3458   -0.6417    0.0000 O   0  0  0  0  0  0  0  0  0  0  0  0
    6.1292    0.6208    0.0000 O   0  0  0  0  0  0  0  0  0  0  0  0
  2  1  1  0
  3  2  2  0
  4  5  1  0
  5  1  1  6
  6 10  1  0
  7  4  1  0
  8  6  1  0
  9 14  2  0
  4 10  1  6
 11  3  1  0
  5 12  1  0
 13 16  2  0
 14 17  1  0
 15  2  1  0
 16  8  1  0
 17  8  2  0
 18 21  1  0
 19 12  2  0
 20 19  1  0
 21 15  2  0
 22 25  1  0
 23  6  2  0
 24 12  1  0
 25 24  2  0
 26  9  1  0
 27 11  1  0
 28 13  1  0
 29 14  1  0
 30 20  1  0
 31 21  1  0
 32 22  1  0
  3  7  1  0
 11 18  2  0
 22 20  2  0
 13  9  1  0
M  END
>  <ID>  (1696) 


>  <MOLENAME>  (1696) 
EPICATECHIN MONOGALLATE

>  <therap>  (1696) 
nan

>  <ref>  (1696) 
nan

>  <cas#>  (1696) 
1257-08-5

>  <source>  (1696) 
tea pigment

>  <status>  (1696) 
undetermined activity

>  <tradename>  (1696) 
nan

>  <SMILES>  (1696) 
O=C(O[C@@H]1Cc2c(cc(O)cc2O)O[C@@H]1c1cc(O)c(O)cc1)c1cc(O)c(O)c(O)c1

>  <standardized_failed>  (1696) 
False

$$$$

     RDKit          2D

 25 27  0  0  0  0  0  0  0  0999 V2000
    0.4000   -0.4917    0.0000 O   0  0  0  0  0  0  0  0  0  0  0  0
   -0.2583   -0.8667    0.0000 C   0  0  0  0  0  0  0  0  0  0  0  0
   -0.2583   -1.6250    0.0000 C   0  0  0  0  0  0  0  0  0  0  0  0
    1.0542   -0.8667    0.0000 C   0  0  0  0  0  0  0  0  0  0  0  0
    0.4000   -2.0000    0.0000 C   0  0  0  0  0  0  0  0  0  0  0  0
   -0.9083   -2.0000    0.0000 C   0  0  0  0  0  0  0  0  0  0  0  0
    1.7042   -0.4917    0.0000 C   0  0  0  0  0  0  0  0  0  0  0  0
    1.0542   -1.6250    0.0000 C   0  0  0  0  0  0  0  0  0  0  0  0
   -0.9083   -0.4917    0.0000 C   0  0  0  0  0  0  0  0  0  0  0  0
   -1.5583   -1.6250    0.0000 C   0  0  0  0  0  0  0  0  0  0  0  0
    1.7042    0.2583    0.0000 C   0  0  0  0  0  0  0  0  0  0  0  0
    2.3542    0.6333    0.0000 C   0  0  0  0  0  0  0  0  0  0  0  0
   -1.5583   -0.8667    0.0000 C   0  0  0  0  0  0  0  0  0  0  0  0
    3.0000    0.2583    0.0000 C   0  0  0  0  0  0  0  0  0  0  0  0
    2.3542   -0.8667    0.0000 C   0  0  0  0  0  0  0  0  0  0  0  0
    3.0000   -0.4917    0.0000 C   0  0  0  0  0  0  0  0  0  0  0  0
    1.7042   -2.0000    0.0000 O   0  0  0  0  0  0  0  0  0  0  0  0
   -0.9083   -2.7500    0.0000 O   0  0  0  0  0  0  0  0  0  0  0  0
    2.3542    1.3833    0.0000 O   0  0  0  0  0  0  0  0  0  0  0  0
   -2.2083   -0.4917    0.0000 O   0  0  0  0  0  0  0  0  0  0  0  0
    3.6500    0.6333    0.0000 O   0  0  0  0  0  0  0  0  0  0  0  0
   -0.2583   -3.1250    0.0000 C   0  0  0  0  0  0  0  0  0  0  0  0
    3.0000    1.7583    0.0000 C   0  0  0  0  0  0  0  0  0  0  0  0
    3.6500    1.3833    0.0000 C   0  0  0  0  0  0  0  0  0  0  0  0
   -2.2083    0.2583    0.0000 C   0  0  0  0  0  0  0  0  0  0  0  0
  2  1  1  0
  3  2  2  0
  4  1  1  6
  5  8  1  0
  6  3  1  0
  4  7  1  0
  8  4  1  0
  9  2  1  0
 10 13  1  0
 11  7  2  0
 12 11  1  0
 13  9  2  0
 14 16  1  0
 15  7  1  0
 16 15  2  0
  8 17  1  1
 18  6  1  0
 19 12  1  0
 20 13  1  0
 21 14  1  0
 22 18  1  0
 23 19  1  0
 24 21  1  0
 25 20  1  0
  3  5  1  0
  6 10  2  0
 14 12  2  0
M  END
>  <ID>  (1697) 


>  <MOLENAME>  (1697) 
CATECHIN TETRAMETHYLETHER

>  <therap>  (1697) 
nan

>  <ref>  (1697) 
nan

>  <cas#>  (1697) 
nan

>  <source>  (1697) 
derivative

>  <status>  (1697) 
undetermined activity

>  <tradename>  (1697) 
nan

>  <SMILES>  (1697) 
COc1cc2c(C[C@H](O)[C@@H](c3cc(OC)c(OC)cc3)O2)c(OC)c1

>  <standardized_failed>  (1697) 
False

$$$$

     RDKit          2D

 23 25  0  0  0  0  0  0  0  0999 V2000
    4.7417   -4.8542    0.0000 O   0  0  0  0  0  0  0  0  0  0  0  0
    4.0292   -5.2667    0.0000 C   0  0  0  0  0  0  0  0  0  0  0  0
    4.0292   -6.0917    0.0000 C   0  0  0  0  0  0  0  0  0  0  0  0
    5.4625   -5.2667    0.0000 C   0  0  0  0  0  0  0  0  0  0  0  0
    4.7417   -6.5042    0.0000 C   0  0  0  0  0  0  0  0  0  0  0  0
    3.3167   -6.5042    0.0000 C   0  0  0  0  0  0  0  0  0  0  0  0
    5.4625   -6.0917    0.0000 C   0  0  0  0  0  0  0  0  0  0  0  0
    3.3167   -4.8542    0.0000 C   0  0  0  0  0  0  0  0  0  0  0  0
    2.6042   -6.0917    0.0000 C   0  0  0  0  0  0  0  0  0  0  0  0
    6.1792   -4.8542    0.0000 C   0  0  0  0  0  0  0  0  0  0  0  0
    2.6042   -5.2667    0.0000 C   0  0  0  0  0  0  0  0  0  0  0  0
    6.8917   -5.2667    0.0000 C   0  0  0  0  0  0  0  0  0  0  0  0
    6.1792   -4.0250    0.0000 C   0  0  0  0  0  0  0  0  0  0  0  0
    6.1792   -6.5125    0.0000 O   0  0  0  0  0  0  0  0  0  0  0  0
    3.3167   -7.3292    0.0000 O   0  0  0  0  0  0  0  0  0  0  0  0
    7.6042   -4.0250    0.0000 C   0  0  0  0  0  0  0  0  0  0  0  0
    6.8917   -3.6125    0.0000 C   0  0  0  0  0  0  0  0  0  0  0  0
    7.6042   -4.8542    0.0000 C   0  0  0  0  0  0  0  0  0  0  0  0
    1.8792   -4.8542    0.0000 O   0  0  0  0  0  0  0  0  0  0  0  0
    8.3292   -3.6042    0.0000 O   0  0  0  0  0  0  0  0  0  0  0  0
    4.0292   -7.7417    0.0000 C   0  0  0  0  0  0  0  0  0  0  0  0
    1.1667   -5.2667    0.0000 C   0  0  0  0  0  0  0  0  0  0  0  0
    8.3250   -2.7750    0.0000 C   0  0  0  0  0  0  0  0  0  0  0  0
  2  1  1  0
  3  2  2  0
  4  1  1  6
  5  7  1  0
  6  3  1  0
  7  4  1  0
  8  2  1  0
  9 11  1  0
  4 10  1  0
 11  8  2  0
 12 10  2  0
 13 10  1  0
  7 14  1  6
 15  6  1  0
 16 17  1  0
 17 13  2  0
 18 12  1  0
 19 11  1  0
 20 16  1  0
 21 15  1  0
 22 19  1  0
 23 20  1  0
  5  3  1  0
 16 18  2  0
  6  9  2  0
M  END
>  <ID>  (1698) 


>  <MOLENAME>  (1698) 
EPIAFZELECHIN TRIMETHYL ETHER

>  <therap>  (1698) 
nan

>  <ref>  (1698) 
nan

>  <cas#>  (1698) 
nan

>  <source>  (1698) 
derivative

>  <status>  (1698) 
undetermined activity

>  <tradename>  (1698) 
nan

>  <SMILES>  (1698) 
COc1ccc([C@H]2Oc3c(C[C@H]2O)c(OC)cc(OC)c3)cc1

>  <standardized_failed>  (1698) 
False

$$$$

     RDKit          2D

 33 36  0  0  0  0  0  0  0  0999 V2000
    4.2042    0.6458    0.0000 O   0  0  0  0  0  0  0  0  0  0  0  0
    3.5500    0.2625    0.0000 C   0  0  0  0  0  0  0  0  0  0  0  0
    3.5500   -0.4917    0.0000 C   0  0  0  0  0  0  0  0  0  0  0  0
    4.8542    0.2625    0.0000 C   0  0  0  0  0  0  0  0  0  0  0  0
    4.8542   -0.4917    0.0000 C   0  0  0  0  0  0  0  0  0  0  0  0
    5.5042    0.6375    0.0000 C   0  0  0  0  0  0  0  0  0  0  0  0
    5.5042   -1.6167    0.0000 C   0  0  0  0  0  0  0  0  0  0  0  0
    4.2042   -0.8667    0.0000 C   0  0  0  0  0  0  0  0  0  0  0  0
    6.1542   -1.9917    0.0000 C   0  0  0  0  0  0  0  0  0  0  0  0
    6.8042    1.3875    0.0000 C   0  0  0  0  0  0  0  0  0  0  0  0
    7.4542   -2.7417    0.0000 C   0  0  0  0  0  0  0  0  0  0  0  0
    5.5042   -0.8667    0.0000 O   0  0  0  0  0  0  0  0  0  0  0  0
    2.8917   -0.8667    0.0000 C   0  0  0  0  0  0  0  0  0  0  0  0
    6.8042    0.6375    0.0000 C   0  0  0  0  0  0  0  0  0  0  0  0
    6.1542    1.7625    0.0000 C   0  0  0  0  0  0  0  0  0  0  0  0
    6.8042   -3.1167    0.0000 C   0  0  0  0  0  0  0  0  0  0  0  0
    7.4542   -1.9917    0.0000 C   0  0  0  0  0  0  0  0  0  0  0  0
    6.1542    0.2625    0.0000 C   0  0  0  0  0  0  0  0  0  0  0  0
    5.5042    1.3875    0.0000 C   0  0  0  0  0  0  0  0  0  0  0  0
    2.8917    0.6458    0.0000 C   0  0  0  0  0  0  0  0  0  0  0  0
    6.1542   -2.7417    0.0000 C   0  0  0  0  0  0  0  0  0  0  0  0
    6.8042   -1.6167    0.0000 C   0  0  0  0  0  0  0  0  0  0  0  0
    2.2500   -0.4917    0.0000 C   0  0  0  0  0  0  0  0  0  0  0  0
    2.2500    0.2625    0.0000 C   0  0  0  0  0  0  0  0  0  0  0  0
    4.8542   -1.9917    0.0000 O   0  0  0  0  0  0  0  0  0  0  0  0
    8.1042   -3.1167    0.0000 O   0  0  0  0  0  0  0  0  0  0  0  0
    7.4542    1.7625    0.0000 O   0  0  0  0  0  0  0  0  0  0  0  0
    2.8917   -1.6167    0.0000 O   0  0  0  0  0  0  0  0  0  0  0  0
    6.1542    2.5208    0.0000 O   0  0  0  0  0  0  0  0  0  0  0  0
    6.8042   -3.8667    0.0000 O   0  0  0  0  0  0  0  0  0  0  0  0
    8.1042   -1.6167    0.0000 O   0  0  0  0  0  0  0  0  0  0  0  0
    7.4542    0.2625    0.0000 O   0  0  0  0  0  0  0  0  0  0  0  0
    1.5917    0.6375    0.0000 O   0  0  0  0  0  0  0  0  0  0  0  0
  2  1  1  0
  3  2  2  0
  4  1  1  6
  5  4  1  0
  4  6  1  0
  7 12  1  0
  8  5  1  0
  9  7  1  0
 10 15  2  0
 11 17  2  0
  5 12  1  6
 13  3  1  0
 14 18  2  0
 15 19  1  0
 16 21  2  0
 17 22  1  0
 18  6  1  0
 19  6  2  0
 20  2  1  0
 21  9  1  0
 22  9  2  0
 23 24  1  0
 24 20  2  0
 25  7  2  0
 26 11  1  0
 27 10  1  0
 28 13  1  0
 29 15  1  0
 30 16  1  0
 31 17  1  0
 32 14  1  0
 33 24  1  0
  3  8  1  0
 14 10  1  0
 13 23  2  0
 16 11  1  0
M  END
>  <ID>  (1699) 


>  <MOLENAME>  (1699) 
EPIGALLOCATECHIN-3-MONOGALLATE

>  <therap>  (1699) 
nan

>  <ref>  (1699) 
nan

>  <cas#>  (1699) 
989-51-5

>  <source>  (1699) 
tea pigment

>  <status>  (1699) 
undetermined activity

>  <tradename>  (1699) 
nan

>  <SMILES>  (1699) 
O=C(O[C@@H]1Cc2c(cc(O)cc2O)O[C@@H]1c1cc(O)c(O)c(O)c1)c1cc(O)c(O)c(O)c1

>  <standardized_failed>  (1699) 
False

$$$$

     RDKit          2D

 12 12  0  0  0  0  0  0  0  0999 V2000
    2.5417    0.1250    0.0000 C   0  0  0  0  0  0  0  0  0  0  0  0
    2.5417   -0.7042    0.0000 C   0  0  0  0  0  0  0  0  0  0  0  0
    1.8292    0.5375    0.0000 C   0  0  0  0  0  0  0  0  0  0  0  0
    1.8292   -1.1167    0.0000 C   0  0  0  0  0  0  0  0  0  0  0  0
    1.1167    0.1250    0.0000 C   0  0  0  0  0  0  0  0  0  0  0  0
    3.2542    0.5458    0.0000 C   0  0  0  0  0  0  0  0  0  0  0  0
    1.1167   -0.7042    0.0000 C   0  0  0  0  0  0  0  0  0  0  0  0
    3.2542    1.3708    0.0000 O   0  0  0  0  0  0  0  0  0  0  0  0
    1.8250    1.3625    0.0000 O   0  0  0  0  0  0  0  0  0  0  0  0
    3.2625   -1.1167    0.0000 O   0  0  0  0  0  0  0  0  0  0  0  0
    0.4000   -1.1167    0.0000 O   0  0  0  0  0  0  0  0  0  0  0  0
    3.9750    0.1333    0.0000 C   0  0  0  0  0  0  0  0  0  0  0  0
  2  1  2  0
  3  1  1  0
  4  2  1  0
  5  3  2  0
  6  1  1  0
  7  5  1  0
  8  6  2  0
  9  3  1  0
 10  2  1  0
 11  7  1  0
 12  6  1  0
  4  7  2  0
M  END
>  <ID>  (1700) 


>  <MOLENAME>  (1700) 
PHLORACETOPHENONE

>  <therap>  (1700) 
nan

>  <ref>  (1700) 
JACS 54:2452 (1932); J Chem Soc 1953:1241; Phytochemistry 16:614 (1977)

>  <cas#>  (1700) 
480-66-0

>  <source>  (1700) 
Prunus domesticus

>  <status>  (1700) 
undetermined activity

>  <tradename>  (1700) 
nan

>  <SMILES>  (1700) 
CC(=O)c1c(O)cc(O)cc1O

>  <standardized_failed>  (1700) 
False

$$$$

     RDKit          2D

 20 22  0  0  0  0  0  0  0  0999 V2000
    2.2958   -1.2583    0.0000 C   0  0  0  0  0  0  0  0  0  0  0  0
    3.0792   -1.5125    0.0000 N   0  0  0  0  0  0  0  0  0  0  0  0
    2.2958   -0.4333    0.0000 C   0  0  0  0  0  0  0  0  0  0  0  0
    3.3333   -2.2958    0.0000 C   0  0  0  0  0  0  0  0  0  0  0  0
    1.5792   -1.6750    0.0000 N   0  0  0  0  0  0  0  0  0  0  0  0
    3.0792   -0.1750    0.0000 N   0  0  0  0  0  0  0  0  0  0  0  0
    1.5792   -0.0208    0.0000 C   0  0  0  0  0  0  0  0  0  0  0  0
    0.8667   -0.4375    0.0000 N   0  0  0  0  0  0  0  0  0  0  0  0
    4.1000   -2.5458    0.0000 C   0  0  0  0  0  0  0  0  0  0  0  0
    0.8667   -1.2625    0.0000 C   0  0  0  0  0  0  0  0  0  0  0  0
    3.5667   -0.8458    0.0000 C   0  0  0  0  0  0  0  0  0  0  0  0
    2.8375   -2.9750    0.0000 O   0  0  0  0  0  0  0  0  0  0  0  0
    4.1000   -3.3792    0.0000 C   0  0  0  0  0  0  0  0  0  0  0  0
    3.3208   -3.6375    0.0000 C   0  0  0  0  0  0  0  0  0  0  0  0
    1.5750    0.8042    0.0000 S   0  0  0  0  0  0  0  0  0  0  0  0
    0.1500   -1.6750    0.0000 N   0  0  0  0  0  0  0  0  0  0  0  0
    4.7667   -2.0583    0.0000 O   0  0  0  0  0  0  0  0  0  0  0  0
    4.7708   -3.8500    0.0000 O   0  0  0  0  0  0  0  0  0  0  0  0
    3.0750   -4.4250    0.0000 C   0  0  0  0  0  0  0  0  0  0  0  0
    3.7292   -4.9125    0.0000 O   0  0  0  0  0  0  0  0  0  0  0  0
  2  1  1  0
  3  1  2  0
  4  2  1  0
  5  1  1  0
  6  3  1  0
  7  3  1  0
  8  7  1  0
  9  4  1  0
 10  5  2  0
 11  2  1  0
 12  4  1  0
 13  9  1  0
 14 12  1  0
 15  7  2  0
 16 10  1  0
  9 17  1  6
 13 18  1  6
 14 19  1  1
 20 19  1  0
  6 11  2  0
 10  8  1  0
 13 14  1  0
M  END
>  <ID>  (1701) 


>  <MOLENAME>  (1701) 
THIOGUANOSINE

>  <therap>  (1701) 
antineoplastic

>  <ref>  (1701) 
Can Res 21:1015 (1961)

>  <cas#>  (1701) 
85-31-4

>  <source>  (1701) 
synthetic

>  <status>  (1701) 
experimental

>  <tradename>  (1701) 
nan

>  <SMILES>  (1701) 
Nc1nc2c(ncn2C2O[C@H](CO)[C@@H](O)[C@H]2O)c(=S)[nH]1

>  <standardized_failed>  (1701) 
False

$$$$

     RDKit          2D

 19 20  0  0  0  0  0  0  0  0999 V2000
    0.6792   -0.3167    0.0000 C   0  0  0  0  0  0  0  0  0  0  0  0
    0.2667   -1.0292    0.0000 C   0  0  0  0  0  0  0  0  0  0  0  0
   -0.5583   -1.0292    0.0000 C   0  0  0  0  0  0  0  0  0  0  0  0
    0.2667    0.3958    0.0000 O   0  0  0  0  0  0  0  0  0  0  0  0
   -0.9708   -0.3167    0.0000 C   0  0  0  0  0  0  0  0  0  0  0  0
   -0.5583    0.3958    0.0000 C   0  0  0  0  0  0  0  0  0  0  0  0
    1.5042   -0.3125    0.0000 O   0  0  0  0  0  0  0  0  0  0  0  0
    0.6792   -1.7417    0.0000 O   0  0  0  0  0  0  0  0  0  0  0  0
   -0.9708   -1.7417    0.0000 O   0  0  0  0  0  0  0  0  0  0  0  0
    2.3292   -0.3125    0.0000 C   0  0  0  0  0  0  0  0  0  0  0  0
   -1.7958   -0.3167    0.0000 O   0  0  0  0  0  0  0  0  0  0  0  0
    3.9792   -0.3125    0.0000 C   0  0  0  0  0  0  0  0  0  0  0  0
   -0.9708    1.1083    0.0000 C   0  0  0  0  0  0  0  0  0  0  0  0
    2.7417    0.4083    0.0000 C   0  0  0  0  0  0  0  0  0  0  0  0
    2.7417   -1.0250    0.0000 C   0  0  0  0  0  0  0  0  0  0  0  0
    3.5667   -1.0250    0.0000 C   0  0  0  0  0  0  0  0  0  0  0  0
    3.5667    0.4083    0.0000 C   0  0  0  0  0  0  0  0  0  0  0  0
    4.8042   -0.3125    0.0000 O   0  0  0  0  0  0  0  0  0  0  0  0
   -1.7833    0.9625    0.0000 O   0  0  0  0  0  0  0  0  0  0  0  0
  2  1  1  0
  3  2  1  0
  4  1  1  0
  5  6  1  0
  6  4  1  0
  1  7  1  1
  2  8  1  6
  3  9  1  1
 10  7  1  0
  5 11  1  6
 12 16  2  0
  6 13  1  1
 14 10  1  0
 15 10  2  0
 16 15  1  0
 17 14  2  0
 18 12  1  0
 19 13  1  0
  3  5  1  0
 12 17  1  0
M  END
>  <ID>  (1702) 


>  <MOLENAME>  (1702) 
ARBUTIN

>  <therap>  (1702) 
nan

>  <ref>  (1702) 
Pharmazie 15: 650 (1960)

>  <cas#>  (1702) 
497-76-7

>  <source>  (1702) 
Berginia crassifolia; also in Pyrus and Vaccinium spp.

>  <status>  (1702) 
undetermined activity

>  <tradename>  (1702) 
nan

>  <SMILES>  (1702) 
OC[C@H]1O[C@@H](Oc2ccc(O)cc2)[C@H](O)[C@@H](O)[C@@H]1O

>  <standardized_failed>  (1702) 
False

$$$$

     RDKit          2D

 18 20  0  0  0  0  0  0  0  0999 V2000
    5.2167   -3.8917    0.0000 C   0  0  0  0  0  0  0  0  0  0  0  0
    6.3292   -4.5042    0.0000 C   0  0  0  0  0  0  0  0  0  0  0  0
    6.6042   -5.8125    0.0000 O   0  0  0  0  0  0  0  0  0  0  0  0
    7.9000   -5.9417    0.0000 C   0  0  0  0  0  0  0  0  0  0  0  0
    4.1000   -4.5042    0.0000 C   0  0  0  0  0  0  0  0  0  0  0  0
    7.4500   -3.8917    0.0000 C   0  0  0  0  0  0  0  0  0  0  0  0
    5.2167   -2.5917    0.0000 C   0  0  0  0  0  0  0  0  0  0  0  0
    8.4292   -4.7750    0.0000 C   0  0  0  0  0  0  0  0  0  0  0  0
    2.9792   -3.8917    0.0000 C   0  0  0  0  0  0  0  0  0  0  0  0
    4.1000   -1.9542    0.0000 C   0  0  0  0  0  0  0  0  0  0  0  0
    2.9792   -2.5917    0.0000 C   0  0  0  0  0  0  0  0  0  0  0  0
    7.4500   -2.5917    0.0000 C   0  0  0  0  0  0  0  0  0  0  0  0
    8.5667   -7.0750    0.0000 O   0  0  0  0  0  0  0  0  0  0  0  0
    6.3292   -1.9542    0.0000 C   0  0  0  0  0  0  0  0  0  0  0  0
    1.8375   -4.5042    0.0000 O   0  0  0  0  0  0  0  0  0  0  0  0
    4.1000   -5.8125    0.0000 C   0  0  0  0  0  0  0  0  0  0  0  0
    5.2167   -1.2917    0.0000 C   0  0  0  0  0  0  0  0  0  0  0  0
    9.7375   -4.5042    0.0000 C   0  0  0  0  0  0  0  0  0  0  0  0
  2  1  1  0
  2  3  1  6
  4  3  1  0
  5  1  2  0
  6  2  1  0
  7  1  1  0
  6  8  1  0
  9  5  1  0
 10  7  1  0
 11 10  2  0
 12 14  1  0
 13  4  2  0
 14  7  1  0
 15  9  2  0
 16  5  1  0
  7 17  1  1
  8 18  1  6
  6 12  1  1
 11  9  1  0
  4  8  1  0
M  END
>  <ID>  (1703) 


>  <MOLENAME>  (1703) 
SANTONIN

>  <therap>  (1703) 
nan

>  <ref>  (1703) 
J Chem Soc 1930: 1110

>  <cas#>  (1703) 
481-06-1

>  <source>  (1703) 
Artemisia spp.

>  <status>  (1703) 
undetermined activity

>  <tradename>  (1703) 
nan

>  <SMILES>  (1703) 
CC1=C2[C@H]3OC(=O)[C@@H](C)[C@@H]3CC[C@@]2(C)C=CC1=O

>  <standardized_failed>  (1703) 
False

$$$$

     RDKit          2D

 16 17  0  0  0  0  0  0  0  0999 V2000
    5.7542   -2.3792    0.0000 C   0  0  0  0  0  0  0  0  0  0  0  0
    5.7542   -3.2125    0.0000 C   0  0  0  0  0  0  0  0  0  0  0  0
    6.4667   -1.9667    0.0000 C   0  0  0  0  0  0  0  0  0  0  0  0
    6.4667   -3.6250    0.0000 N   0  0  0  0  0  0  0  0  0  0  0  0
    6.4625   -1.1417    0.0000 O   0  0  0  0  0  0  0  0  0  0  0  0
    6.4667   -4.4417    0.0000 C   0  0  0  0  0  0  0  0  0  0  0  0
    7.1792   -2.3750    0.0000 O   0  0  0  0  0  0  0  0  0  0  0  0
    5.0375   -1.9667    0.0000 C   0  0  0  0  0  0  0  0  0  0  0  0
    5.0375   -3.6250    0.0000 C   0  0  0  0  0  0  0  0  0  0  0  0
    5.7542   -4.8625    0.0000 C   0  0  0  0  0  0  0  0  0  0  0  0
    7.1792   -4.8542    0.0000 C   0  0  0  0  0  0  0  0  0  0  0  0
    4.3250   -2.3875    0.0000 C   0  0  0  0  0  0  0  0  0  0  0  0
    4.3250   -3.2125    0.0000 C   0  0  0  0  0  0  0  0  0  0  0  0
    7.1917   -5.6792    0.0000 C   0  0  0  0  0  0  0  0  0  0  0  0
    5.7542   -5.6792    0.0000 C   0  0  0  0  0  0  0  0  0  0  0  0
    6.4750   -6.0917    0.0000 C   0  0  0  0  0  0  0  0  0  0  0  0
  2  1  2  0
  3  1  1  0
  4  2  1  0
  5  3  2  0
  6  4  1  0
  7  3  1  0
  8  1  1  0
  9  2  1  0
 10  6  2  0
 11  6  1  0
 12  8  2  0
 13 12  1  0
 14 11  2  0
 15 10  1  0
 16 14  1  0
  9 13  2  0
 16 15  2  0
M  END
>  <ID>  (1704) 


>  <MOLENAME>  (1704) 
N-PHENYLANTHRANILIC ACID

>  <therap>  (1704) 
ion channel (Cl) blocker

>  <ref>  (1704) 
Am J Physiol 253:C79 (1987); J Biol Chem 276:11575 (2001)

>  <cas#>  (1704) 
91-40-7

>  <source>  (1704) 
synthetic

>  <status>  (1704) 
experimental

>  <tradename>  (1704) 
nan

>  <SMILES>  (1704) 
O=C(O)c1c(Nc2ccccc2)cccc1

>  <standardized_failed>  (1704) 
False

$$$$

     RDKit          2D

 15 15  0  0  0  0  0  0  0  0999 V2000
    3.3792   -0.9958    0.0000 C   0  0  0  0  0  0  0  0  0  0  0  0
    2.5583   -0.9958    0.0000 C   0  0  0  0  0  0  0  0  0  0  0  0
    0.0875    0.4292    0.0000 C   0  0  0  0  0  0  0  0  0  0  0  0
    2.1458   -0.2792    0.0000 C   0  0  0  0  0  0  0  0  0  0  0  0
   -0.3208   -0.2833    0.0000 C   0  0  0  0  0  0  0  0  0  0  0  0
    0.9125    0.4333    0.0000 C   0  0  0  0  0  0  0  0  0  0  0  0
    3.7917   -0.2792    0.0000 O   0  0  0  0  0  0  0  0  0  0  0  0
    1.3250   -0.2792    0.0000 C   0  0  0  0  0  0  0  0  0  0  0  0
    0.0875   -0.9917    0.0000 C   0  0  0  0  0  0  0  0  0  0  0  0
    3.7917   -1.7083    0.0000 O   0  0  0  0  0  0  0  0  0  0  0  0
    0.9125   -0.9917    0.0000 C   0  0  0  0  0  0  0  0  0  0  0  0
   -0.3292    1.1417    0.0000 O   0  0  0  0  0  0  0  0  0  0  0  0
   -1.1458   -0.2833    0.0000 O   0  0  0  0  0  0  0  0  0  0  0  0
    0.0792    1.8583    0.0000 C   0  0  0  0  0  0  0  0  0  0  0  0
   -1.5583   -1.0000    0.0000 C   0  0  0  0  0  0  0  0  0  0  0  0
  2  1  1  0
  3  6  2  0
  4  2  2  0
  5  3  1  0
  6  8  1  0
  7  1  2  0
  8  4  1  0
  9 11  1  0
 10  1  1  0
 11  8  2  0
 12  3  1  0
 13  5  1  0
 14 12  1  0
 15 13  1  0
  9  5  2  0
M  END
>  <ID>  (1705) 


>  <MOLENAME>  (1705) 
DIMETHYLCAFFEIC ACID

>  <therap>  (1705) 
nan

>  <ref>  (1705) 
nan

>  <cas#>  (1705) 
14737-89-4

>  <source>  (1705) 
Piper methysticum, Veronica virginica

>  <status>  (1705) 
undetermined activity

>  <tradename>  (1705) 
nan

>  <SMILES>  (1705) 
COc1ccc(/C=C/C(=O)O)cc1OC

>  <standardized_failed>  (1705) 
False

$$$$

     RDKit          2D

 13 13  0  0  0  0  0  0  0  0999 V2000
    2.1917   -0.0542    0.0000 C   0  0  0  0  0  0  0  0  0  0  0  0
    2.1917   -0.8792    0.0000 C   0  0  0  0  0  0  0  0  0  0  0  0
    1.4792    0.3583    0.0000 C   0  0  0  0  0  0  0  0  0  0  0  0
    2.9042    0.3583    0.0000 C   0  0  0  0  0  0  0  0  0  0  0  0
    1.4792   -1.2917    0.0000 C   0  0  0  0  0  0  0  0  0  0  0  0
    0.7667   -0.0542    0.0000 C   0  0  0  0  0  0  0  0  0  0  0  0
    0.7667   -0.8792    0.0000 C   0  0  0  0  0  0  0  0  0  0  0  0
    2.9125    1.1833    0.0000 O   0  0  0  0  0  0  0  0  0  0  0  0
    2.9042   -1.2917    0.0000 O   0  0  0  0  0  0  0  0  0  0  0  0
    3.6250   -0.0542    0.0000 O   0  0  0  0  0  0  0  0  0  0  0  0
    0.0542   -1.2917    0.0000 O   0  0  0  0  0  0  0  0  0  0  0  0
    1.4792    1.1833    0.0000 C   0  0  0  0  0  0  0  0  0  0  0  0
    3.6167   -0.8792    0.0000 C   0  0  0  0  0  0  0  0  0  0  0  0
  2  1  2  0
  3  1  1  0
  4  1  1  0
  5  2  1  0
  6  3  2  0
  7  6  1  0
  8  4  2  0
  9  2  1  0
 10  4  1  0
 11  7  1  0
 12  3  1  0
 13 10  1  0
  5  7  2  0
M  END
>  <ID>  (1706) 


>  <MOLENAME>  (1706) 
METHYL ORSELLINATE

>  <therap>  (1706) 
nan

>  <ref>  (1706) 
Ber 56: 2556 (1923); JACS 88: 2053 (1966); Tetrahedron 24: 2707 (1968); J Chem Soc 1984: 1035,1043

>  <cas#>  (1706) 
3187-58-4

>  <source>  (1706) 
lichens and lichen acids

>  <status>  (1706) 
undetermined activity

>  <tradename>  (1706) 
nan

>  <SMILES>  (1706) 
COC(=O)c1c(O)cc(O)cc1C

>  <standardized_failed>  (1706) 
False

$$$$

     RDKit          2D

 18 19  0  0  0  0  0  0  0  0999 V2000
    6.2542   -3.6750    0.0000 C   0  0  0  0  0  0  0  0  0  0  0  0
    5.8417   -4.3917    0.0000 C   0  0  0  0  0  0  0  0  0  0  0  0
    7.0792   -3.6667    0.0000 C   0  0  0  0  0  0  0  0  0  0  0  0
    5.0125   -4.3917    0.0000 C   0  0  0  0  0  0  0  0  0  0  0  0
    6.2625   -5.1042    0.0000 O   0  0  0  0  0  0  0  0  0  0  0  0
    4.6000   -3.6792    0.0000 C   0  0  0  0  0  0  0  0  0  0  0  0
    4.6000   -5.1125    0.0000 C   0  0  0  0  0  0  0  0  0  0  0  0
    7.4917   -2.9542    0.0000 C   0  0  0  0  0  0  0  0  0  0  0  0
    3.3625   -4.4000    0.0000 C   0  0  0  0  0  0  0  0  0  0  0  0
    3.7792   -5.1125    0.0000 C   0  0  0  0  0  0  0  0  0  0  0  0
    3.7750   -3.6792    0.0000 C   0  0  0  0  0  0  0  0  0  0  0  0
    2.5292   -4.4042    0.0000 O   0  0  0  0  0  0  0  0  0  0  0  0
    8.3167   -2.9542    0.0000 C   0  0  0  0  0  0  0  0  0  0  0  0
    7.0792   -2.2417    0.0000 C   0  0  0  0  0  0  0  0  0  0  0  0
    2.1042   -3.6917    0.0000 C   0  0  0  0  0  0  0  0  0  0  0  0
    7.4917   -1.5167    0.0000 C   0  0  0  0  0  0  0  0  0  0  0  0
    8.7292   -2.2292    0.0000 C   0  0  0  0  0  0  0  0  0  0  0  0
    8.3167   -1.5167    0.0000 C   0  0  0  0  0  0  0  0  0  0  0  0
  2  1  1  0
  3  1  2  0
  4  2  1  0
  5  2  2  0
  6  4  2  0
  7  4  1  0
  8  3  1  0
  9 10  1  0
 10  7  2  0
 11  6  1  0
 12  9  1  0
 13  8  2  0
 14  8  1  0
 15 12  1  0
 16 14  2  0
 17 13  1  0
 18 16  1  0
 11  9  2  0
 18 17  2  0
M  END
>  <ID>  (1707) 


>  <MOLENAME>  (1707) 
4'-METHOXYCHALCONE

>  <therap>  (1707) 
nan

>  <ref>  (1707) 
Acta Cryst C 48:741 (1992)

>  <cas#>  (1707) 
22966-19-4

>  <source>  (1707) 
Citrus limon

>  <status>  (1707) 
undetermined activity

>  <tradename>  (1707) 
nan

>  <SMILES>  (1707) 
COc1ccc(C(=O)/C=C/c2ccccc2)cc1

>  <standardized_failed>  (1707) 
False

$$$$

     RDKit          2D

 10  9  0  0  0  0  0  0  0  0999 V2000
   -2.5958    0.2500    0.0000 O   0  0  0  0  0  0  0  0  0  0  0  0
   -1.8833    0.6625    0.0000 C   0  0  0  0  0  0  0  0  0  0  0  0
   -1.1708    0.2542    0.0000 C   0  0  0  0  0  0  0  0  0  0  0  0
   -0.4583    0.6667    0.0000 C   0  0  0  0  0  0  0  0  0  0  0  0
    0.2542    0.2583    0.0000 C   0  0  0  0  0  0  0  0  0  0  0  0
    0.9667    0.6708    0.0000 C   0  0  0  0  0  0  0  0  0  0  0  0
    1.6792    0.2625    0.0000 O   0  0  0  0  0  0  0  0  0  0  0  0
   -1.1690   -0.5708    0.0000 O   0  0  0  0  0  0  0  0  0  0  0  0
   -0.4601    1.4917    0.0000 O   0  0  0  0  0  0  0  0  0  0  0  0
    0.2560   -0.5667    0.0000 O   0  0  0  0  0  0  0  0  0  0  0  0
  2  3  1  0
  5  6  1  0
  1  2  1  0
  6  7  1  0
  3  4  1  0
  3  8  1  1
  4  9  1  0
  4  5  1  0
  5 10  1  6
M  END
>  <ID>  (1708) 


>  <MOLENAME>  (1708) 
ARABITOL

>  <therap>  (1708) 
nan

>  <ref>  (1708) 
nan

>  <cas#>  (1708) 
7643-75-6

>  <source>  (1708) 
Lecanora sordida & other lichen & fungi

>  <status>  (1708) 
undetermined activity

>  <tradename>  (1708) 
nan

>  <SMILES>  (1708) 
OC[C@H](O)C(O)[C@@H](O)CO

>  <standardized_failed>  (1708) 
False

$$$$

     RDKit          2D

 27 29  0  0  0  0  0  0  0  0999 V2000
    6.1375   -1.7042    0.0000 C   0  0  0  0  0  0  0  0  0  0  0  0
    5.4250   -2.1250    0.0000 C   0  0  0  0  0  0  0  0  0  0  0  0
    4.7042   -1.7125    0.0000 C   0  0  0  0  0  0  0  0  0  0  0  0
    6.8500   -2.1125    0.0000 C   0  0  0  0  0  0  0  0  0  0  0  0
    6.1292   -0.8792    0.0000 C   0  0  0  0  0  0  0  0  0  0  0  0
    7.5542   -1.7000    0.0000 C   0  0  0  0  0  0  0  0  0  0  0  0
    4.7042   -0.8875    0.0000 C   0  0  0  0  0  0  0  0  0  0  0  0
    8.2750   -2.1042    0.0000 C   0  0  0  0  0  0  0  0  0  0  0  0
    5.4167   -0.4667    0.0000 O   0  0  0  0  0  0  0  0  0  0  0  0
    3.9917   -2.1292    0.0000 C   0  0  0  0  0  0  0  0  0  0  0  0
    3.9917   -0.4750    0.0000 C   0  0  0  0  0  0  0  0  0  0  0  0
    3.2792   -1.7167    0.0000 C   0  0  0  0  0  0  0  0  0  0  0  0
    3.2792   -0.8875    0.0000 C   0  0  0  0  0  0  0  0  0  0  0  0
    6.8542   -2.9417    0.0000 C   0  0  0  0  0  0  0  0  0  0  0  0
    8.2792   -2.9292    0.0000 C   0  0  0  0  0  0  0  0  0  0  0  0
    5.4250   -2.9500    0.0000 O   0  0  0  0  0  0  0  0  0  0  0  0
    7.5667   -3.3500    0.0000 C   0  0  0  0  0  0  0  0  0  0  0  0
    8.9875   -1.6875    0.0000 O   0  0  0  0  0  0  0  0  0  0  0  0
    7.5542   -0.8750    0.0000 O   0  0  0  0  0  0  0  0  0  0  0  0
    2.5625   -2.1292    0.0000 O   0  0  0  0  0  0  0  0  0  0  0  0
    2.5667   -0.4792    0.0000 O   0  0  0  0  0  0  0  0  0  0  0  0
    9.0000   -3.3417    0.0000 O   0  0  0  0  0  0  0  0  0  0  0  0
    9.7042   -2.0917    0.0000 C   0  0  0  0  0  0  0  0  0  0  0  0
    8.2667   -0.4542    0.0000 C   0  0  0  0  0  0  0  0  0  0  0  0
    2.5625   -2.9542    0.0000 C   0  0  0  0  0  0  0  0  0  0  0  0
    2.5667    0.3458    0.0000 C   0  0  0  0  0  0  0  0  0  0  0  0
    9.7125   -2.9292    0.0000 C   0  0  0  0  0  0  0  0  0  0  0  0
  2  1  1  0
  3  2  1  0
  4  1  1  0
  5  1  2  0
  6  4  2  0
  7  9  1  0
  8  6  1  0
  9  5  1  0
 10  3  2  0
 11  7  2  0
 12 10  1  0
 13 11  1  0
 14  4  1  0
 15 17  1  0
 16  2  2  0
 17 14  2  0
 18  8  1  0
 19  6  1  0
 20 12  1  0
 21 13  1  0
 22 15  1  0
 23 18  1  0
 24 19  1  0
 25 20  1  0
 26 21  1  0
 27 22  1  0
  7  3  1  0
 15  8  2  0
 13 12  2  0
M  END
>  <ID>  (1709) 


>  <MOLENAME>  (1709) 
6.7.2'.3'.4'-PENTAMETHOXYISOFLAVONE

>  <therap>  (1709) 
nan

>  <ref>  (1709) 
Phytochemistry 10:2835 (1970); 13:2593 (1974)

>  <cas#>  (1709) 
33978-66-4

>  <source>  (1709) 
Pterodon pubescens, P apparicicoi

>  <status>  (1709) 
undetermined activity

>  <tradename>  (1709) 
nan

>  <SMILES>  (1709) 
COc1c(OC)cc2c(=O)c(-c3c(OC)c(OC)c(OC)cc3)coc2c1

>  <standardized_failed>  (1709) 
False

$$$$

     RDKit          2D

 10  9  0  0  0  0  0  0  0  0999 V2000
   -1.2250    0.6250    0.0000 O   0  0  0  0  0  0  0  0  0  0  0  0
   -0.5125    1.0375    0.0000 C   0  0  0  0  0  0  0  0  0  0  0  0
    0.2000    0.6292    0.0000 C   0  0  0  0  0  0  0  0  0  0  0  0
    0.9125    1.0417    0.0000 C   0  0  0  0  0  0  0  0  0  0  0  0
    1.6250    0.6333    0.0000 C   0  0  0  0  0  0  0  0  0  0  0  0
    2.3375    1.0458    0.0000 C   0  0  0  0  0  0  0  0  0  0  0  0
    0.2018   -0.1958    0.0000 O   0  0  0  0  0  0  0  0  0  0  0  0
    1.6268   -0.1917    0.0000 O   0  0  0  0  0  0  0  0  0  0  0  0
    3.0525    0.6342    0.0000 O   0  0  0  0  0  0  0  0  0  0  0  0
    0.9107    1.8667    0.0000 O   0  0  0  0  0  0  0  0  0  0  0  0
  2  3  1  0
  5  6  1  0
  1  2  1  0
  3  7  1  6
  3  4  1  0
  5  8  1  6
  6  9  1  0
  4  5  1  0
  4 10  1  1
M  END
>  <ID>  (1710) 


>  <MOLENAME>  (1710) 
ADONITOL

>  <therap>  (1710) 
nan

>  <ref>  (1710) 
Pharm Acta Helv 23: 153 (1948); JACS 104: 1109 (1982); J Chem Soc 1983: 1553

>  <cas#>  (1710) 
488-81-3

>  <source>  (1710) 
Adonis spp

>  <status>  (1710) 
undetermined activity

>  <tradename>  (1710) 
nan

>  <SMILES>  (1710) 
OC[C@H](O)[C@H](O)[C@H](O)CO

>  <standardized_failed>  (1710) 
False

$$$$

     RDKit          2D

 11 11  0  0  0  0  0  0  0  0999 V2000
    1.0792    0.0625    0.0000 C   0  0  0  0  0  0  0  0  0  0  0  0
    1.7917    0.4833    0.0000 C   0  0  0  0  0  0  0  0  0  0  0  0
    0.3625    0.4750    0.0000 C   0  0  0  0  0  0  0  0  0  0  0  0
    1.7875    1.3083    0.0000 O   0  0  0  0  0  0  0  0  0  0  0  0
    0.3542    1.3000    0.0000 N   0  0  0  0  0  0  0  0  0  0  0  0
    2.5042    0.0708    0.0000 O   0  0  0  0  0  0  0  0  0  0  0  0
    1.0792   -0.7667    0.0000 C   0  0  0  0  0  0  0  0  0  0  0  0
   -0.3500    0.0625    0.0000 C   0  0  0  0  0  0  0  0  0  0  0  0
   -0.3583    1.7083    0.0000 C   0  0  0  0  0  0  0  0  0  0  0  0
    0.3625   -1.1792    0.0000 C   0  0  0  0  0  0  0  0  0  0  0  0
   -0.3500   -0.7667    0.0000 C   0  0  0  0  0  0  0  0  0  0  0  0
  2  1  1  0
  3  1  2  0
  4  2  2  0
  5  3  1  0
  6  2  1  0
  7  1  1  0
  8  3  1  0
  9  5  1  0
 10  7  2  0
 11 10  1  0
 11  8  2  0
M  END
>  <ID>  (1711) 


>  <MOLENAME>  (1711) 
N-METHYLANTHRANILIC ACID

>  <therap>  (1711) 
nan

>  <ref>  (1711) 
Ber 42: 3194 (1909)

>  <cas#>  (1711) 
119-68-6

>  <source>  (1711) 
grapefruit peel oil

>  <status>  (1711) 
undetermined activity

>  <tradename>  (1711) 
nan

>  <SMILES>  (1711) 
CNc1c(C(=O)O)cccc1

>  <standardized_failed>  (1711) 
False

$$$$

     RDKit          2D

 19 21  0  0  0  0  0  0  0  0999 V2000
    6.0792   -3.1042    0.0000 C   0  0  0  0  0  0  0  0  0  0  0  0
    5.3667   -2.7000    0.0000 C   0  0  0  0  0  0  0  0  0  0  0  0
    4.6542   -3.1125    0.0000 C   0  0  0  0  0  0  0  0  0  0  0  0
    6.0875   -3.9375    0.0000 C   0  0  0  0  0  0  0  0  0  0  0  0
    5.3750   -4.3500    0.0000 C   0  0  0  0  0  0  0  0  0  0  0  0
    4.6542   -3.9375    0.0000 C   0  0  0  0  0  0  0  0  0  0  0  0
    6.7917   -2.6875    0.0000 C   0  0  0  0  0  0  0  0  0  0  0  0
    6.8042   -4.3417    0.0000 C   0  0  0  0  0  0  0  0  0  0  0  0
    5.3625   -1.8750    0.0000 O   0  0  0  0  0  0  0  0  0  0  0  0
    3.9417   -2.7000    0.0000 C   0  0  0  0  0  0  0  0  0  0  0  0
    7.5125   -3.0917    0.0000 C   0  0  0  0  0  0  0  0  0  0  0  0
    5.3750   -5.1750    0.0000 O   0  0  0  0  0  0  0  0  0  0  0  0
    7.5167   -3.9250    0.0000 C   0  0  0  0  0  0  0  0  0  0  0  0
    6.7875   -1.8625    0.0000 O   0  0  0  0  0  0  0  0  0  0  0  0
    3.9417   -4.3542    0.0000 C   0  0  0  0  0  0  0  0  0  0  0  0
    3.9375   -1.8750    0.0000 O   0  0  0  0  0  0  0  0  0  0  0  0
    3.2292   -3.9417    0.0000 C   0  0  0  0  0  0  0  0  0  0  0  0
    3.2292   -3.1167    0.0000 C   0  0  0  0  0  0  0  0  0  0  0  0
    8.2417   -4.3375    0.0000 C   0  0  0  0  0  0  0  0  0  0  0  0
  2  1  1  0
  3  2  1  0
  4  1  2  0
  5  4  1  0
  6  5  1  0
  7  1  1  0
  8  4  1  0
  9  2  2  0
 10  3  2  0
 11  7  2  0
 12  5  2  0
 13 11  1  0
 14  7  1  0
 15  6  2  0
 16 10  1  0
 17 15  1  0
 18 10  1  0
 19 13  1  0
  8 13  2  0
  3  6  1  0
 18 17  2  0
M  END
>  <ID>  (1712) 


>  <MOLENAME>  (1712) 
CHRYSOPHANOL

>  <therap>  (1712) 
nan

>  <ref>  (1712) 
Phytochemistry 11: 2122 (1972)

>  <cas#>  (1712) 
481-74-3

>  <source>  (1712) 
Cassia and Rumex spp

>  <status>  (1712) 
undetermined activity

>  <tradename>  (1712) 
nan

>  <SMILES>  (1712) 
Cc1cc2c(C(=O)c3c(O)cccc3C2=O)c(O)c1

>  <standardized_failed>  (1712) 
False

$$$$

     RDKit          2D

 10  9  0  0  0  0  0  0  0  0999 V2000
    3.6917   -0.0292    0.0000 N   0  0  0  0  0  0  0  0  0  0  0  0
    4.4042    0.3833    0.0000 N   0  0  0  0  0  0  0  0  0  0  0  0
    4.8042   -0.7917    0.0000 Cl  0  0  0  0  0  0  0  0  0  0  0  0
    2.2667   -0.0417    0.0000 C   0  0  0  0  0  0  0  0  0  0  0  0
    2.9792    0.3750    0.0000 C   0  0  0  0  0  0  0  0  0  0  0  0
    2.2667   -0.8667    0.0000 C   0  0  0  0  0  0  0  0  0  0  0  0
    1.5500    0.3708    0.0000 C   0  0  0  0  0  0  0  0  0  0  0  0
    1.5500   -1.2792    0.0000 C   0  0  0  0  0  0  0  0  0  0  0  0
    0.8375   -0.0417    0.0000 C   0  0  0  0  0  0  0  0  0  0  0  0
    0.8375   -0.8667    0.0000 C   0  0  0  0  0  0  0  0  0  0  0  0
  2  1  1  0
  4  5  1  0
  5  1  1  0
  6  4  2  0
  7  4  1  0
  8  6  1  0
  9  7  2  0
 10  8  2  0
  9 10  1  0
M  END
>  <ID>  (1713) 


>  <MOLENAME>  (1713) 
BENZYLHYDRAZINE HYDROCHLORIDE

>  <therap>  (1713) 
inhibitor of bovine serum oxidase; irritant

>  <ref>  (1713) 
Anal Biochem  77: 106 (1977); Biochem J 260: 19 (1989); 324: 497 (1997)

>  <cas#>  (1713) 
3287-99-8; 100-46-9(base)

>  <source>  (1713) 
Moringa spp

>  <status>  (1713) 
experimental

>  <tradename>  (1713) 
nan

>  <SMILES>  (1713) 
NNCc1ccccc1

>  <standardized_failed>  (1713) 
False

$$$$

     RDKit          2D

 17 19  0  0  0  0  0  0  0  0999 V2000
    2.6125   -2.2917    0.0000 C   0  0  0  0  0  0  0  0  0  0  0  0
    2.2417   -1.6417    0.0000 O   0  0  0  0  0  0  0  0  0  0  0  0
    1.6292   -3.0000    0.0000 C   0  0  0  0  0  0  0  0  0  0  0  0
    2.6250   -0.9917    0.0000 C   0  0  0  0  0  0  0  0  0  0  0  0
    0.2167   -3.1125    0.0000 C   0  0  0  0  0  0  0  0  0  0  0  0
    0.8667   -2.3500    0.0000 C   0  0  0  0  0  0  0  0  0  0  0  0
    0.9792   -3.7625    0.0000 C   0  0  0  0  0  0  0  0  0  0  0  0
    3.3792   -1.0000    0.0000 C   0  0  0  0  0  0  0  0  0  0  0  0
    0.8667   -1.0542    0.0000 C   0  0  0  0  0  0  0  0  0  0  0  0
    1.6292   -0.4000    0.0000 C   0  0  0  0  0  0  0  0  0  0  0  0
    3.3625   -2.3042    0.0000 C   0  0  0  0  0  0  0  0  0  0  0  0
    3.7500   -1.6542    0.0000 C   0  0  0  0  0  0  0  0  0  0  0  0
    3.7625   -0.3542    0.0000 O   0  0  0  0  0  0  0  0  0  0  0  0
    2.6125   -2.9000    0.0000 C   0  0  0  0  0  0  0  0  0  0  0  0
   -0.3208   -3.8375    0.0000 C   0  0  0  0  0  0  0  0  0  0  0  0
   -0.6000   -2.6792    0.0000 C   0  0  0  0  0  0  0  0  0  0  0  0
    2.6125   -0.2417    0.0000 C   0  0  0  0  0  0  0  0  0  0  0  0
  2  1  1  0
  3  1  1  0
  4  2  1  0
  5  7  1  0
  6  3  1  0
  7  3  1  0
  8 12  1  0
  9  6  1  0
 10  4  1  0
 11  1  1  0
 12 11  1  0
 13  8  2  0
 14  1  1  0
 15  5  1  0
 16  5  1  0
 17  4  1  0
  5  6  1  0
  4  8  1  0
 10  9  1  0
M  END
>  <ID>  (1714) 


>  <MOLENAME>  (1714) 
3.7-EPOXYCARYOPHYLLAN-6-ONE

>  <therap>  (1714) 
nan

>  <ref>  (1714) 
nan

>  <cas#>  (1714) 
nan

>  <source>  (1714) 
derivative Lippia spp

>  <status>  (1714) 
undetermined activity

>  <tradename>  (1714) 
nan

>  <SMILES>  (1714) 
CC12CCC3C(CC3(C)C)C(C)(CCC1=O)O2

>  <standardized_failed>  (1714) 
False

$$$$

     RDKit          2D

 12 13  0  0  0  0  0  0  0  0999 V2000
    6.4875   -5.3917    0.0000 O   0  0  0  0  0  0  0  0  0  0  0  0
    5.7750   -4.9792    0.0000 C   0  0  0  0  0  0  0  0  0  0  0  0
    7.2042   -4.9792    0.0000 C   0  0  0  0  0  0  0  0  0  0  0  0
    6.4875   -3.7417    0.0000 C   0  0  0  0  0  0  0  0  0  0  0  0
    7.2042   -4.1542    0.0000 C   0  0  0  0  0  0  0  0  0  0  0  0
    5.7750   -4.1542    0.0000 C   0  0  0  0  0  0  0  0  0  0  0  0
    5.0625   -5.3917    0.0000 C   0  0  0  0  0  0  0  0  0  0  0  0
    7.9250   -5.3917    0.0000 O   0  0  0  0  0  0  0  0  0  0  0  0
    5.0625   -3.7417    0.0000 C   0  0  0  0  0  0  0  0  0  0  0  0
    4.3417   -4.9792    0.0000 C   0  0  0  0  0  0  0  0  0  0  0  0
    4.3417   -4.1542    0.0000 C   0  0  0  0  0  0  0  0  0  0  0  0
    3.6250   -5.3917    0.0000 O   0  0  0  0  0  0  0  0  0  0  0  0
  2  1  1  0
  3  1  1  0
  4  5  2  0
  5  3  1  0
  6  2  2  0
  7  2  1  0
  8  3  2  0
  9  6  1  0
 10  7  2  0
 11 10  1  0
 12 10  1  0
  6  4  1  0
  9 11  2  0
M  END
>  <ID>  (1715) 


>  <MOLENAME>  (1715) 
UMBELLIFERONE

>  <therap>  (1715) 
antifungal, phytoalexin

>  <ref>  (1715) 
Chem Pharm Bull 19:640 (1971); Phytochemistry 14:1083 (1975)

>  <cas#>  (1715) 
93-35-6

>  <source>  (1715) 
Angelica, Artemisia, Coronilla, Ferula and Ruta spp

>  <status>  (1715) 
experimental

>  <tradename>  (1715) 
nan

>  <SMILES>  (1715) 
O=c1ccc2c(cc(O)cc2)o1

>  <standardized_failed>  (1715) 
False

$$$$

     RDKit          2D

 19 20  0  0  0  0  0  0  0  0999 V2000
    2.6375    0.3125    0.0000 C   0  0  0  0  0  0  0  0  0  0  0  0
    1.9250    0.7333    0.0000 C   0  0  0  0  0  0  0  0  0  0  0  0
    3.9250   -0.8667    0.0000 C   0  0  0  0  0  0  0  0  0  0  0  0
    2.6375   -0.5125    0.0000 C   0  0  0  0  0  0  0  0  0  0  0  0
    3.1542    0.8083    0.0000 C   0  0  0  0  0  0  0  0  0  0  0  0
    3.9500    0.6583    0.0000 C   0  0  0  0  0  0  0  0  0  0  0  0
    1.2167    0.3125    0.0000 C   0  0  0  0  0  0  0  0  0  0  0  0
    4.3042   -0.1167    0.0000 C   0  0  0  0  0  0  0  0  0  0  0  0
    3.1292   -1.0000    0.0000 C   0  0  0  0  0  0  0  0  0  0  0  0
    1.2167   -0.5125    0.0000 C   0  0  0  0  0  0  0  0  0  0  0  0
    4.4042   -1.5375    0.0000 C   0  0  0  0  0  0  0  0  0  0  0  0
    1.9250   -0.9167    0.0000 C   0  0  0  0  0  0  0  0  0  0  0  0
    2.9250    1.5958    0.0000 O   0  0  0  0  0  0  0  0  0  0  0  0
    5.2292   -1.4542    0.0000 O   0  0  0  0  0  0  0  0  0  0  0  0
    1.9250    1.5583    0.0000 O   0  0  0  0  0  0  0  0  0  0  0  0
    4.4542    1.3083    0.0000 O   0  0  0  0  0  0  0  0  0  0  0  0
    0.5000    0.7250    0.0000 O   0  0  0  0  0  0  0  0  0  0  0  0
    0.5000   -0.9250    0.0000 O   0  0  0  0  0  0  0  0  0  0  0  0
    4.0750   -2.2917    0.0000 O   0  0  0  0  0  0  0  0  0  0  0  0
  2  1  2  0
  3  9  2  0
  4  1  1  0
  5  1  1  0
  6  5  1  0
  7  2  1  0
  8  6  2  0
  9  4  1  0
 10 12  1  0
 11  3  1  0
 12  4  2  0
 13  5  2  0
 14 11  2  0
 15  2  1  0
 16  6  1  0
 17  7  1  0
 18 10  1  0
 19 11  1  0
  3  8  1  0
  7 10  2  0
M  END
>  <ID>  (1716) 


>  <MOLENAME>  (1716) 
PURPUROGALLIN-4-CARBOXYLIC ACID

>  <therap>  (1716) 
antioxidant 

>  <ref>  (1716) 
nan

>  <cas#>  (1716) 
nan

>  <source>  (1716) 
semisynthetic

>  <status>  (1716) 
experimental

>  <tradename>  (1716) 
nan

>  <SMILES>  (1716) 
O=C(O)c1cc2cc(O)c(O)c(O)c2c(=O)c(O)c1

>  <standardized_failed>  (1716) 
False

$$$$

     RDKit          2D

 21 24  0  0  0  0  0  0  0  0999 V2000
    3.2417    0.2000    0.0000 C   0  0  0  0  0  0  0  0  0  0  0  0
    3.9667    0.6125    0.0000 C   0  0  0  0  0  0  0  0  0  0  0  0
    3.4167   -0.6125    0.0000 O   0  0  0  0  0  0  0  0  0  0  0  0
    2.5292    0.6125    0.0000 C   0  0  0  0  0  0  0  0  0  0  0  0
    4.2292   -0.7000    0.0000 C   0  0  0  0  0  0  0  0  0  0  0  0
    4.5792    0.0583    0.0000 C   0  0  0  0  0  0  0  0  0  0  0  0
    2.5292    1.4375    0.0000 C   0  0  0  0  0  0  0  0  0  0  0  0
    3.2417    1.8583    0.0000 O   0  0  0  0  0  0  0  0  0  0  0  0
    3.9667    1.4375    0.0000 C   0  0  0  0  0  0  0  0  0  0  0  0
    4.7167   -1.3625    0.0000 C   0  0  0  0  0  0  0  0  0  0  0  0
    1.8167    0.2000    0.0000 C   0  0  0  0  0  0  0  0  0  0  0  0
    1.8167    1.8500    0.0000 C   0  0  0  0  0  0  0  0  0  0  0  0
    5.3917    0.1375    0.0000 C   0  0  0  0  0  0  0  0  0  0  0  0
    5.5417   -1.2792    0.0000 C   0  0  0  0  0  0  0  0  0  0  0  0
    1.1042    1.4375    0.0000 C   0  0  0  0  0  0  0  0  0  0  0  0
    1.1042    0.6125    0.0000 C   0  0  0  0  0  0  0  0  0  0  0  0
    5.8792   -0.5292    0.0000 C   0  0  0  0  0  0  0  0  0  0  0  0
    0.3917    1.8500    0.0000 O   0  0  0  0  0  0  0  0  0  0  0  0
    6.0167   -1.9500    0.0000 O   0  0  0  0  0  0  0  0  0  0  0  0
    5.6792   -2.7042    0.0000 C   0  0  0  0  0  0  0  0  0  0  0  0
   -0.3208    1.4458    0.0000 C   0  0  0  0  0  0  0  0  0  0  0  0
  2  1  2  0
  3  1  1  0
  4  1  1  0
  5  3  1  0
  6  2  1  0
  7  4  2  0
  8  7  1  0
  9  2  1  0
 10  5  2  0
 11  4  1  0
 12  7  1  0
 13  6  2  0
 14 10  1  0
 15 16  1  0
 16 11  2  0
 17 13  1  0
 18 15  1  0
 19 14  1  0
 20 19  1  0
 21 18  1  0
  8  9  1  0
  6  5  1  0
 12 15  2  0
 17 14  2  0
M  END
>  <ID>  (1717) 


>  <MOLENAME>  (1717) 
DEHYDROVARIABILIN

>  <therap>  (1717) 
nan

>  <ref>  (1717) 
Phytochemistry 17: 1417 (1978)

>  <cas#>  (1717) 
nan

>  <source>  (1717) 
Dalbergia variabilis

>  <status>  (1717) 
undetermined activity

>  <tradename>  (1717) 
nan

>  <SMILES>  (1717) 
COc1cc2c(cc1)-c1c(CO2)c2ccc(OC)cc2o1

>  <standardized_failed>  (1717) 
False

$$$$

     RDKit          2D

 22 24  0  0  0  0  0  0  0  0999 V2000
    4.2042    0.6458    0.0000 O   0  0  0  0  0  0  0  0  0  0  0  0
    3.5500    0.2625    0.0000 C   0  0  0  0  0  0  0  0  0  0  0  0
    3.5500   -0.4917    0.0000 C   0  0  0  0  0  0  0  0  0  0  0  0
    4.8542    0.2625    0.0000 C   0  0  0  0  0  0  0  0  0  0  0  0
    5.5042    0.6375    0.0000 C   0  0  0  0  0  0  0  0  0  0  0  0
    6.8042    1.3875    0.0000 C   0  0  0  0  0  0  0  0  0  0  0  0
    4.2042   -0.8667    0.0000 C   0  0  0  0  0  0  0  0  0  0  0  0
    2.8917   -0.8667    0.0000 C   0  0  0  0  0  0  0  0  0  0  0  0
    6.8042    0.6375    0.0000 C   0  0  0  0  0  0  0  0  0  0  0  0
    6.1542    1.7625    0.0000 C   0  0  0  0  0  0  0  0  0  0  0  0
    4.8542   -0.4917    0.0000 C   0  0  0  0  0  0  0  0  0  0  0  0
    6.1542    0.2625    0.0000 C   0  0  0  0  0  0  0  0  0  0  0  0
    5.5042    1.3875    0.0000 C   0  0  0  0  0  0  0  0  0  0  0  0
    2.8917    0.6458    0.0000 C   0  0  0  0  0  0  0  0  0  0  0  0
    2.2500   -0.4917    0.0000 C   0  0  0  0  0  0  0  0  0  0  0  0
    2.2500    0.2625    0.0000 C   0  0  0  0  0  0  0  0  0  0  0  0
    7.4542    1.7625    0.0000 O   0  0  0  0  0  0  0  0  0  0  0  0
    2.8917   -1.6167    0.0000 O   0  0  0  0  0  0  0  0  0  0  0  0
    6.1542    2.5208    0.0000 O   0  0  0  0  0  0  0  0  0  0  0  0
    7.4542    0.2625    0.0000 O   0  0  0  0  0  0  0  0  0  0  0  0
    5.5042   -0.8667    0.0000 O   0  0  0  0  0  0  0  0  0  0  0  0
    1.5917    0.6375    0.0000 O   0  0  0  0  0  0  0  0  0  0  0  0
  2  1  1  0
  3  2  2  0
  4  1  1  6
  4  5  1  0
  6 10  2  0
  7 11  1  0
  8  3  1  0
  9 12  2  0
 10 13  1  0
 11  4  1  0
 12  5  1  0
 13  5  2  0
 14  2  1  0
 15 16  1  0
 16 14  2  0
 17  6  1  0
 18  8  1  0
 19 10  1  0
 20  9  1  0
 11 21  1  6
 22 16  1  0
  3  7  1  0
  9  6  1  0
  8 15  2  0
M  END
>  <ID>  (1718) 


>  <MOLENAME>  (1718) 
EPIGALLOCATECHIN

>  <therap>  (1718) 
nan

>  <ref>  (1718) 
nan

>  <cas#>  (1718) 
970-74-1

>  <source>  (1718) 
green tea

>  <status>  (1718) 
undetermined activity

>  <tradename>  (1718) 
nan

>  <SMILES>  (1718) 
Oc1cc2c(C[C@@H](O)[C@@H](c3cc(O)c(O)c(O)c3)O2)c(O)c1

>  <standardized_failed>  (1718) 
False

$$$$

     RDKit          2D

 17 19  0  0  0  0  0  0  0  0999 V2000
   -0.4458   -1.0917    0.0000 C   0  0  0  0  0  0  0  0  0  0  0  0
   -0.4333   -0.2667    0.0000 O   0  0  0  0  0  0  0  0  0  0  0  0
   -1.3208   -0.5917    0.0000 C   0  0  0  0  0  0  0  0  0  0  0  0
    0.2750    0.1458    0.0000 C   0  0  0  0  0  0  0  0  0  0  0  0
   -2.2500    0.4208    0.0000 C   0  0  0  0  0  0  0  0  0  0  0  0
   -1.2875    0.4458    0.0000 C   0  0  0  0  0  0  0  0  0  0  0  0
   -2.2833   -0.6125    0.0000 C   0  0  0  0  0  0  0  0  0  0  0  0
   -0.7000    1.0333    0.0000 C   0  0  0  0  0  0  0  0  0  0  0  0
   -0.0083    0.8375    0.0000 C   0  0  0  0  0  0  0  0  0  0  0  0
    0.2750   -1.5042    0.0000 C   0  0  0  0  0  0  0  0  0  0  0  0
    0.9875   -0.2667    0.0000 C   0  0  0  0  0  0  0  0  0  0  0  0
    0.9875   -1.0917    0.0000 C   0  0  0  0  0  0  0  0  0  0  0  0
   -0.8750   -1.9750    0.0000 C   0  0  0  0  0  0  0  0  0  0  0  0
    1.7000    0.1458    0.0000 O   0  0  0  0  0  0  0  0  0  0  0  0
   -2.2375    1.3375    0.0000 C   0  0  0  0  0  0  0  0  0  0  0  0
   -3.1208    0.4333    0.0000 C   0  0  0  0  0  0  0  0  0  0  0  0
    0.9292    0.8083    0.0000 C   0  0  0  0  0  0  0  0  0  0  0  0
  2  1  1  0
  3  1  1  0
  4  2  1  0
  5  7  1  0
  6  3  1  0
  7  3  1  0
  8  6  1  0
  9  4  1  0
 10  1  1  0
 11 12  1  0
 12 10  1  0
 13  1  1  0
 14 11  1  0
 15  5  1  0
 16  5  1  0
 17  4  1  0
  5  6  1  0
  4 11  1  0
  8  9  1  0
M  END
>  <ID>  (1719) 


>  <MOLENAME>  (1719) 
3.7-EPOXYCARYOPHYLLAN-6-OL

>  <therap>  (1719) 
nan

>  <ref>  (1719) 
nan

>  <cas#>  (1719) 
nan

>  <source>  (1719) 
derivative Lippia spp

>  <status>  (1719) 
undetermined activity

>  <tradename>  (1719) 
nan

>  <SMILES>  (1719) 
CC1(C)CC2C1CCC1(C)OC2(C)CCC1O

>  <standardized_failed>  (1719) 
False

$$$$

     RDKit          2D

 16 16  0  0  0  0  0  0  0  0999 V2000
   -2.1500    0.8833    0.0000 C   0  0  0  0  0  0  0  0  0  0  0  0
   -2.1500    1.9208    0.0000 C   0  0  0  0  0  0  0  0  0  0  0  0
   -3.0458    2.4333    0.0000 C   0  0  0  0  0  0  0  0  0  0  0  0
   -3.0458    0.3708    0.0000 C   0  0  0  0  0  0  0  0  0  0  0  0
   -3.9250    1.9208    0.0000 C   0  0  0  0  0  0  0  0  0  0  0  0
   -1.2625    0.3708    0.0000 C   0  0  0  0  0  0  0  0  0  0  0  0
   -3.9250    0.8833    0.0000 C   0  0  0  0  0  0  0  0  0  0  0  0
   -3.0458    3.4583    0.0000 C   0  0  0  0  0  0  0  0  0  0  0  0
   -1.2625   -0.6542    0.0000 O   0  0  0  0  0  0  0  0  0  0  0  0
   -1.2625    2.4250    0.0000 O   0  0  0  0  0  0  0  0  0  0  0  0
   -2.1583    3.9708    0.0000 O   0  0  0  0  0  0  0  0  0  0  0  0
   -4.8208    2.4250    0.0000 O   0  0  0  0  0  0  0  0  0  0  0  0
   -0.3708    0.8833    0.0000 O   0  0  0  0  0  0  0  0  0  0  0  0
   -3.0458   -0.6542    0.0000 C   0  0  0  0  0  0  0  0  0  0  0  0
    0.5125    0.3708    0.0000 C   0  0  0  0  0  0  0  0  0  0  0  0
    1.4042    0.8833    0.0000 C   0  0  0  0  0  0  0  0  0  0  0  0
  2  1  2  0
  3  2  1  0
  4  1  1  0
  5  7  1  0
  6  1  1  0
  7  4  2  0
  8  3  1  0
  9  6  2  0
 10  2  1  0
 11  8  2  0
 12  5  1  0
 13  6  1  0
 14  4  1  0
 15 13  1  0
 16 15  1  0
  5  3  2  0
M  END
>  <ID>  (1720) 


>  <MOLENAME>  (1720) 
HAEMATOMMIC ACID. ETHYL ESTER

>  <therap>  (1720) 
nan

>  <ref>  (1720) 
J Org Chem 42: 2526 (1977); Helv Chim Acta 72: 1061 (1989)

>  <cas#>  (1720) 
39503-14-5

>  <source>  (1720) 
various lichens, e.g. Evernia spp, Parmelia spp

>  <status>  (1720) 
undetermined activity

>  <tradename>  (1720) 
nan

>  <SMILES>  (1720) 
CCOC(=O)c1c(O)c(C=O)c(O)cc1C

>  <standardized_failed>  (1720) 
False

$$$$

     RDKit          2D

 42 46  0  0  0  0  0  0  0  0999 V2000
    8.3375   -3.5250    0.0000 C   0  0  0  0  0  0  0  0  0  0  0  0
    8.6917   -5.0042    0.0000 C   0  0  0  0  0  0  0  0  0  0  0  0
    6.4750   -4.3167    0.0000 C   0  0  0  0  0  0  0  0  0  0  0  0
    8.0875   -4.3667    0.0000 C   0  0  0  0  0  0  0  0  0  0  0  0
    6.4750   -2.8875    0.0000 C   0  0  0  0  0  0  0  0  0  0  0  0
    6.8792   -3.6042    0.0000 C   0  0  0  0  0  0  0  0  0  0  0  0
    7.9792   -2.6792    0.0000 C   0  0  0  0  0  0  0  0  0  0  0  0
    7.1875   -4.7292    0.0000 C   0  0  0  0  0  0  0  0  0  0  0  0
    7.1875   -2.4667    0.0000 C   0  0  0  0  0  0  0  0  0  0  0  0
    5.6500   -2.8875    0.0000 C   0  0  0  0  0  0  0  0  0  0  0  0
    5.6500   -4.3167    0.0000 C   0  0  0  0  0  0  0  0  0  0  0  0
    9.1917   -3.3125    0.0000 C   0  0  0  0  0  0  0  0  0  0  0  0
    9.5417   -4.8000    0.0000 C   0  0  0  0  0  0  0  0  0  0  0  0
    7.1792   -5.5542    0.0000 O   0  0  0  0  0  0  0  0  0  0  0  0
    6.4667   -5.9625    0.0000 C   0  0  0  0  0  0  0  0  0  0  0  0
    5.2292   -3.6042    0.0000 C   0  0  0  0  0  0  0  0  0  0  0  0
    9.1250   -5.7625    0.0000 C   0  0  0  0  0  0  0  0  0  0  0  0
    9.7917   -3.9542    0.0000 C   0  0  0  0  0  0  0  0  0  0  0  0
    7.9292   -5.4375    0.0000 O   0  0  0  0  0  0  0  0  0  0  0  0
    9.9792   -5.5625    0.0000 O   0  0  0  0  0  0  0  0  0  0  0  0
    7.0750   -1.6500    0.0000 O   0  0  0  0  0  0  0  0  0  0  0  0
    8.1542   -6.2792    0.0000 C   0  0  0  0  0  0  0  0  0  0  0  0
    6.3042   -1.3375    0.0000 C   0  0  0  0  0  0  0  0  0  0  0  0
    8.3667   -1.9917    0.0000 O   0  0  0  0  0  0  0  0  0  0  0  0
    5.7542   -5.5417    0.0000 O   0  0  0  0  0  0  0  0  0  0  0  0
    6.4917   -5.0875    0.0000 O   0  0  0  0  0  0  0  0  0  0  0  0
    6.4625   -6.7875    0.0000 C   0  0  0  0  0  0  0  0  0  0  0  0
    8.9917   -6.5042    0.0000 O   0  0  0  0  0  0  0  0  0  0  0  0
    6.2000   -0.5167    0.0000 O   0  0  0  0  0  0  0  0  0  0  0  0
    8.5667   -2.6417    0.0000 C   0  0  0  0  0  0  0  0  0  0  0  0
    9.4375   -2.4667    0.0000 O   0  0  0  0  0  0  0  0  0  0  0  0
    7.5917   -4.0167    0.0000 C   0  0  0  0  0  0  0  0  0  0  0  0
    7.5917   -3.1875    0.0000 C   0  0  0  0  0  0  0  0  0  0  0  0
    4.4042   -3.6042    0.0000 O   0  0  0  0  0  0  0  0  0  0  0  0
    5.2375   -2.1750    0.0000 C   0  0  0  0  0  0  0  0  0  0  0  0
    5.6542   -1.8417    0.0000 C   0  0  0  0  0  0  0  0  0  0  0  0
    7.5292   -6.9000    0.0000 C   0  0  0  0  0  0  0  0  0  0  0  0
    5.7417   -7.1917    0.0000 C   0  0  0  0  0  0  0  0  0  0  0  0
    7.1667   -7.1917    0.0000 C   0  0  0  0  0  0  0  0  0  0  0  0
    7.1667   -8.0167    0.0000 C   0  0  0  0  0  0  0  0  0  0  0  0
    5.7375   -8.0167    0.0000 C   0  0  0  0  0  0  0  0  0  0  0  0
    6.4500   -8.4292    0.0000 C   0  0  0  0  0  0  0  0  0  0  0  0
  2  4  1  0
  3  8  1  0
  4  1  1  0
  5  9  1  0
  6  5  1  0
  7  1  1  0
  8  4  1  0
  9  7  1  0
 10  5  2  0
 11  3  1  0
 12  1  1  0
 13 18  1  1
  8 14  1  6
 15 14  1  0
 16 10  1  0
  2 17  1  0
 18 12  1  0
  2 19  1  6
 13 20  1  0
  9 21  1  1
 22 19  1  0
 23 21  1  0
 24  7  2  0
 25 15  2  0
  3 26  1  1
 27 15  1  0
 28 22  2  0
 29 23  2  0
  1 30  1  1
 12 31  1  1
 32  6  1  0
 33  6  1  0
 16 34  1  6
 35 10  1  0
 36 23  1  0
 37 22  1  0
 38 27  2  0
 39 27  1  0
 40 39  2  0
 41 38  1  0
 42 40  1  0
 13  2  1  0
 20 17  1  0
  6  3  1  0
 16 11  1  0
 42 41  2  0
M  END
>  <ID>  (1721) 


>  <MOLENAME>  (1721) 
BACCATIN III

>  <therap>  (1721) 
nan

>  <ref>  (1721) 
J Org Chem 51:3239 (1986)

>  <cas#>  (1721) 
27548-93-2

>  <source>  (1721) 
Taxus baccata

>  <status>  (1721) 
undetermined activity

>  <tradename>  (1721) 
nan

>  <SMILES>  (1721) 
CC(=O)O[C@H]1C(=O)[C@@]2(C)C([C@H](OC(=O)c3ccccc3)[C@]3(O)C[C@H](O)C(C)=C1C3(C)C)[C@]1(OC(C)=O)CO[C@@H]1C[C@@H]2O

>  <standardized_failed>  (1721) 
False

$$$$

     RDKit          2D

 28 32  0  0  0  0  0  0  0  0999 V2000
    5.1417   -5.0417    0.0000 C   0  0  0  0  0  0  0  0  0  0  0  0
    5.8542   -5.4542    0.0000 C   0  0  0  0  0  0  0  0  0  0  0  0
    6.5667   -5.0375    0.0000 C   0  0  0  0  0  0  0  0  0  0  0  0
    4.4250   -5.4542    0.0000 C   0  0  0  0  0  0  0  0  0  0  0  0
    3.7125   -5.0417    0.0000 C   0  0  0  0  0  0  0  0  0  0  0  0
    5.1417   -4.2167    0.0000 C   0  0  0  0  0  0  0  0  0  0  0  0
    3.7125   -4.2167    0.0000 C   0  0  0  0  0  0  0  0  0  0  0  0
    6.5667   -4.2042    0.0000 C   0  0  0  0  0  0  0  0  0  0  0  0
    5.8500   -3.8000    0.0000 O   0  0  0  0  0  0  0  0  0  0  0  0
    3.0000   -5.4542    0.0000 C   0  0  0  0  0  0  0  0  0  0  0  0
    4.4250   -3.8042    0.0000 C   0  0  0  0  0  0  0  0  0  0  0  0
    7.2792   -5.4417    0.0000 C   0  0  0  0  0  0  0  0  0  0  0  0
    3.0000   -3.8042    0.0000 O   0  0  0  0  0  0  0  0  0  0  0  0
    8.7042   -5.4292    0.0000 C   0  0  0  0  0  0  0  0  0  0  0  0
    7.9917   -5.0292    0.0000 C   0  0  0  0  0  0  0  0  0  0  0  0
    2.2875   -5.0417    0.0000 C   0  0  0  0  0  0  0  0  0  0  0  0
    2.2875   -4.2167    0.0000 C   0  0  0  0  0  0  0  0  0  0  0  0
    5.8542   -6.2792    0.0000 O   0  0  0  0  0  0  0  0  0  0  0  0
    8.7167   -6.2625    0.0000 C   0  0  0  0  0  0  0  0  0  0  0  0
    9.4917   -5.1667    0.0000 O   0  0  0  0  0  0  0  0  0  0  0  0
    9.5042   -6.5125    0.0000 O   0  0  0  0  0  0  0  0  0  0  0  0
    9.9875   -5.8292    0.0000 C   0  0  0  0  0  0  0  0  0  0  0  0
    7.2875   -6.2667    0.0000 C   0  0  0  0  0  0  0  0  0  0  0  0
    8.0000   -6.6792    0.0000 C   0  0  0  0  0  0  0  0  0  0  0  0
    4.4292   -6.2792    0.0000 O   0  0  0  0  0  0  0  0  0  0  0  0
    1.8667   -3.5042    0.0000 C   0  0  0  0  0  0  0  0  0  0  0  0
    1.4875   -4.4292    0.0000 C   0  0  0  0  0  0  0  0  0  0  0  0
    5.1417   -6.6917    0.0000 C   0  0  0  0  0  0  0  0  0  0  0  0
  2  1  1  0
  3  2  1  0
  4  1  2  0
  5  4  1  0
  6  1  1  0
  7 11  1  0
  8  9  1  0
  9  6  1  0
 10  5  1  0
 11  6  2  0
 12  3  1  0
 13  7  1  0
 14 15  2  0
 15 12  1  0
 16 10  2  0
 17 13  1  0
 18  2  2  0
 19 24  2  0
 20 14  1  0
 21 19  1  0
 22 20  1  0
 23 12  2  0
 24 23  1  0
 25  4  1  0
 26 17  1  0
 27 17  1  0
 28 25  1  0
  7  5  2  0
  8  3  2  0
 16 17  1  0
 19 14  1  0
 22 21  1  0
M  END
>  <ID>  (1722) 


>  <MOLENAME>  (1722) 
METHYL ROBUSTONE

>  <therap>  (1722) 
nan

>  <ref>  (1722) 
J Indian Chem Soc 18: 471 (9179)

>  <cas#>  (1722) 
nan

>  <source>  (1722) 
Derris spp

>  <status>  (1722) 
undetermined activity

>  <tradename>  (1722) 
nan

>  <SMILES>  (1722) 
COc1c2c(=O)c(-c3ccc4OCOc4c3)coc2cc2c1C=CC(C)(C)O2

>  <standardized_failed>  (1722) 
False

$$$$

     RDKit          2D

 15 15  0  0  0  0  0  0  0  0999 V2000
    4.6792   -2.5500    0.0000 C   0  0  0  0  0  0  0  0  0  0  0  0
    4.6792   -3.3875    0.0000 C   0  0  0  0  0  0  0  0  0  0  0  0
    5.4000   -2.1375    0.0000 C   0  0  0  0  0  0  0  0  0  0  0  0
    6.8792   -2.1542    0.0000 C   0  0  0  0  0  0  0  0  0  0  0  0
    6.1250   -2.5500    0.0000 C   0  0  0  0  0  0  0  0  0  0  0  0
    3.9625   -3.8125    0.0000 C   0  0  0  0  0  0  0  0  0  0  0  0
    3.9542   -2.1375    0.0000 O   0  0  0  0  0  0  0  0  0  0  0  0
    6.9042   -1.6167    0.0000 O   0  0  0  0  0  0  0  0  0  0  0  0
    6.1125   -3.0917    0.0000 N   0  0  0  0  0  0  0  0  0  0  0  0
    7.5917   -2.5917    0.0000 O   0  0  0  0  0  0  0  0  0  0  0  0
    3.2375   -3.4000    0.0000 N   0  0  0  0  0  0  0  0  0  0  0  0
    5.4000   -3.8125    0.0000 C   0  0  0  0  0  0  0  0  0  0  0  0
    3.9625   -4.6500    0.0000 C   0  0  0  0  0  0  0  0  0  0  0  0
    5.4000   -4.6500    0.0000 C   0  0  0  0  0  0  0  0  0  0  0  0
    4.6792   -5.0542    0.0000 C   0  0  0  0  0  0  0  0  0  0  0  0
  2  1  1  0
  3  1  1  0
  4  5  1  0
  5  3  1  0
  6  2  2  0
  7  1  2  0
  8  4  2  0
  9  5  1  0
 10  4  1  0
 11  6  1  0
 12  2  1  0
 13  6  1  0
 14 12  2  0
 15 14  1  0
 13 15  2  0
M  END
>  <ID>  (1723) 


>  <MOLENAME>  (1723) 
KYNURENINE

>  <therap>  (1723) 
nan

>  <ref>  (1723) 
J Am Chem Soc 71: 4158 (1955)

>  <cas#>  (1723) 
nan

>  <source>  (1723) 
mamalian urine

>  <status>  (1723) 
undetermined activity

>  <tradename>  (1723) 
nan

>  <SMILES>  (1723) 
Nc1c(C(=O)CC(N)C(=O)O)cccc1

>  <standardized_failed>  (1723) 
False

$$$$

     RDKit          2D

 29 32  0  0  0  0  0  0  0  0999 V2000
    3.4750   -4.1292    0.0000 C   0  0  0  0  0  0  0  0  0  0  0  0
    5.6167   -2.9000    0.0000 C   0  0  0  0  0  0  0  0  0  0  0  0
    4.9000   -4.1292    0.0000 C   0  0  0  0  0  0  0  0  0  0  0  0
    4.1875   -3.7250    0.0000 C   0  0  0  0  0  0  0  0  0  0  0  0
    5.6167   -3.7250    0.0000 C   0  0  0  0  0  0  0  0  0  0  0  0
    3.4750   -4.9625    0.0000 C   0  0  0  0  0  0  0  0  0  0  0  0
    4.1875   -5.3750    0.0000 C   0  0  0  0  0  0  0  0  0  0  0  0
    4.9000   -4.9625    0.0000 C   0  0  0  0  0  0  0  0  0  0  0  0
    6.4000   -2.6375    0.0000 C   0  0  0  0  0  0  0  0  0  0  0  0
    4.9000   -2.4875    0.0000 C   0  0  0  0  0  0  0  0  0  0  0  0
    4.1875   -2.9000    0.0000 C   0  0  0  0  0  0  0  0  0  0  0  0
    6.4000   -3.9750    0.0000 C   0  0  0  0  0  0  0  0  0  0  0  0
    2.7625   -3.7250    0.0000 C   0  0  0  0  0  0  0  0  0  0  0  0
    6.8875   -3.3125    0.0000 C   0  0  0  0  0  0  0  0  0  0  0  0
    2.7625   -5.3750    0.0000 C   0  0  0  0  0  0  0  0  0  0  0  0
    4.1792   -6.2000    0.0000 O   0  0  0  0  0  0  0  0  0  0  0  0
    6.6500   -1.8500    0.0000 C   0  0  0  0  0  0  0  0  0  0  0  0
    3.4750   -3.3125    0.0000 C   0  0  0  0  0  0  0  0  0  0  0  0
    5.6500   -2.0500    0.0000 C   0  0  0  0  0  0  0  0  0  0  0  0
    2.0417   -4.1292    0.0000 C   0  0  0  0  0  0  0  0  0  0  0  0
    2.0417   -4.9625    0.0000 C   0  0  0  0  0  0  0  0  0  0  0  0
    1.3250   -5.3875    0.0000 O   0  0  0  0  0  0  0  0  0  0  0  0
    8.0125   -2.2875    0.0000 C   0  0  0  0  0  0  0  0  0  0  0  0
    7.4542   -1.6750    0.0000 C   0  0  0  0  0  0  0  0  0  0  0  0
    6.0917   -1.2375    0.0000 C   0  0  0  0  0  0  0  0  0  0  0  0
    8.8167   -2.1125    0.0000 C   0  0  0  0  0  0  0  0  0  0  0  0
    9.3667   -2.7167    0.0000 C   0  0  0  0  0  0  0  0  0  0  0  0
    9.1167   -3.5042    0.0000 C   0  0  0  0  0  0  0  0  0  0  0  0
   10.1792   -2.5417    0.0000 C   0  0  0  0  0  0  0  0  0  0  0  0
  2 10  1  0
  3  4  1  0
  4  1  1  0
  5  3  1  0
  6  1  1  0
  7  6  1  0
  8  7  1  0
  9  2  1  0
 10 11  1  0
 11  4  1  0
 12  5  1  0
 13  1  1  0
 14 12  1  0
  6 15  1  1
 16  7  2  0
 17  9  1  0
  1 18  1  1
  2 19  1  1
 20 13  1  0
 21 20  1  0
 21 22  1  1
 23 24  1  0
 24 17  1  0
 25 17  1  0
 26 23  1  0
 27 26  1  0
 28 27  1  0
 29 27  1  0
 21 15  1  0
  3  8  1  0
  2  5  1  0
  9 14  1  0
M  END
>  <ID>  (1724) 


>  <MOLENAME>  (1724) 
5alpha-CHOLESTAN-3beta-OL-6-ONE

>  <therap>  (1724) 
nan

>  <ref>  (1724) 
nan

>  <cas#>  (1724) 
nan

>  <source>  (1724) 
Mandevilla pentlandiana

>  <status>  (1724) 
undetermined activity

>  <tradename>  (1724) 
nan

>  <SMILES>  (1724) 
CC(C)CCCC(C)C1CCC2C3CC(=O)[C@H]4C[C@@H](O)CC[C@]4(C)C3CC[C@]12C

>  <standardized_failed>  (1724) 
False

$$$$

     RDKit          2D

 30 33  0  0  0  0  0  0  0  0999 V2000
    2.0500   -2.6667    0.0000 C   0  0  0  0  0  0  0  0  0  0  0  0
    1.3375   -3.0792    0.0000 C   0  0  0  0  0  0  0  0  0  0  0  0
    1.3417   -3.9042    0.0000 C   0  0  0  0  0  0  0  0  0  0  0  0
    3.4792   -1.8417    0.0000 C   0  0  0  0  0  0  0  0  0  0  0  0
    2.0542   -1.8417    0.0000 C   0  0  0  0  0  0  0  0  0  0  0  0
    2.7667   -1.4250    0.0000 C   0  0  0  0  0  0  0  0  0  0  0  0
    0.6292   -4.3167    0.0000 O   0  0  0  0  0  0  0  0  0  0  0  0
    2.0542   -4.3167    0.0000 C   0  0  0  0  0  0  0  0  0  0  0  0
    2.0542   -5.1417    0.0000 C   0  0  0  0  0  0  0  0  0  0  0  0
    2.7667   -3.0792    0.0000 O   0  0  0  0  0  0  0  0  0  0  0  0
    3.4792   -2.6667    0.0000 C   0  0  0  0  0  0  0  0  0  0  0  0
    1.3417   -5.5542    0.0000 C   0  0  0  0  0  0  0  0  0  0  0  0
    0.6250   -5.1417    0.0000 C   0  0  0  0  0  0  0  0  0  0  0  0
    1.3375   -1.4292    0.0000 C   0  0  0  0  0  0  0  0  0  0  0  0
    4.2000   -1.4292    0.0000 C   0  0  0  0  0  0  0  0  0  0  0  0
    0.6250   -2.6667    0.0000 C   0  0  0  0  0  0  0  0  0  0  0  0
    2.7667   -0.6000    0.0000 O   0  0  0  0  0  0  0  0  0  0  0  0
    0.6250   -1.8417    0.0000 C   0  0  0  0  0  0  0  0  0  0  0  0
    4.2000   -0.6125    0.0000 C   0  0  0  0  0  0  0  0  0  0  0  0
    4.9125   -1.8500    0.0000 C   0  0  0  0  0  0  0  0  0  0  0  0
    2.7667   -3.9000    0.0000 O   0  0  0  0  0  0  0  0  0  0  0  0
    2.7667   -5.5542    0.0000 O   0  0  0  0  0  0  0  0  0  0  0  0
    1.3375   -6.3792    0.0000 O   0  0  0  0  0  0  0  0  0  0  0  0
    5.6292   -0.6125    0.0000 C   0  0  0  0  0  0  0  0  0  0  0  0
    4.9125   -0.2000    0.0000 C   0  0  0  0  0  0  0  0  0  0  0  0
    5.6250   -1.4417    0.0000 C   0  0  0  0  0  0  0  0  0  0  0  0
   -0.0958   -3.0792    0.0000 O   0  0  0  0  0  0  0  0  0  0  0  0
   -0.0875   -5.5500    0.0000 C   0  0  0  0  0  0  0  0  0  0  0  0
    6.3417   -0.2042    0.0000 O   0  0  0  0  0  0  0  0  0  0  0  0
   -0.8000   -5.1375    0.0000 O   0  0  0  0  0  0  0  0  0  0  0  0
  2  1  1  0
  3  2  1  0
  4 11  2  0
  5  1  2  0
  6  5  1  0
  7  3  1  0
  8  3  1  0
  9  8  1  0
 10  1  1  0
 11 10  1  0
 12  9  1  0
 13  7  1  0
 14  5  1  0
 15  4  1  0
 16  2  2  0
 17  6  2  0
 18 14  2  0
 19 15  2  0
 20 15  1  0
  8 21  1  6
  9 22  1  1
 12 23  1  6
 24 26  1  0
 25 19  1  0
 26 20  2  0
 27 16  1  0
 13 28  1  1
 29 24  1  0
 30 28  1  0
  4  6  1  0
 18 16  1  0
 12 13  1  0
 25 24  2  0
M  END
>  <ID>  (1725) 


>  <MOLENAME>  (1725) 
PUERARIN

>  <therap>  (1725) 
beta-adrenergic blocker

>  <ref>  (1725) 
Chem Pharm Bull 8:688 (1960)

>  <cas#>  (1725) 
3681-99-0

>  <source>  (1725) 
Pueraria spp

>  <status>  (1725) 
experimental

>  <tradename>  (1725) 
nan

>  <SMILES>  (1725) 
O=c1c(-c2ccc(O)cc2)coc2c1ccc(O)c2C1O[C@H](CO)[C@@H](O)[C@H](O)[C@H]1O

>  <standardized_failed>  (1725) 
False

$$$$

     RDKit          2D

 12 12  0  0  0  0  0  0  0  0999 V2000
    4.4292   -3.7167    0.0000 C   0  0  0  0  0  0  0  0  0  0  0  0
    5.6917   -3.0542    0.0000 C   0  0  0  0  0  0  0  0  0  0  0  0
    5.2167   -3.9292    0.0000 C   0  0  0  0  0  0  0  0  0  0  0  0
    5.1292   -4.9542    0.0000 C   0  0  0  0  0  0  0  0  0  0  0  0
    4.4292   -4.5417    0.0000 C   0  0  0  0  0  0  0  0  0  0  0  0
    6.4042   -3.4667    0.0000 C   0  0  0  0  0  0  0  0  0  0  0  0
    6.4042   -4.2917    0.0000 C   0  0  0  0  0  0  0  0  0  0  0  0
    5.6917   -2.2292    0.0000 C   0  0  0  0  0  0  0  0  0  0  0  0
    7.1292   -3.0542    0.0000 N   0  0  0  0  0  0  0  0  0  0  0  0
    5.8667   -4.1292    0.0000 C   0  0  0  0  0  0  0  0  0  0  0  0
    5.5792   -3.3792    0.0000 C   0  0  0  0  0  0  0  0  0  0  0  0
    7.6417   -4.3792    0.0000 Cl  0  0  0  0  0  0  0  0  0  0  0  0
  2  1  1  0
  3  1  1  0
  4  5  1  0
  5  1  1  0
  6  2  1  0
  7  4  1  0
  8  2  2  0
  9  6  1  0
 10  3  1  0
 11  3  1  0
  4  3  1  0
  6  7  1  0
M  END
>  <ID>  (1726) 


>  <MOLENAME>  (1726) 
3-AMINO-beta-PINENE

>  <therap>  (1726) 
nan

>  <ref>  (1726) 
Helv Chim Acta 46: 1480 (1963)

>  <cas#>  (1726) 
nan

>  <source>  (1726) 
derivative

>  <status>  (1726) 
undetermined activity

>  <tradename>  (1726) 
nan

>  <SMILES>  (1726) 
C=C1C(N)CC2CC1C2(C)C

>  <standardized_failed>  (1726) 
False

$$$$

     RDKit          2D

 21 23  0  0  0  0  0  0  0  0999 V2000
    4.6542   -3.5167    0.0000 C   0  0  0  0  0  0  0  0  0  0  0  0
    6.0917   -3.5167    0.0000 C   0  0  0  0  0  0  0  0  0  0  0  0
    5.3792   -3.1042    0.0000 C   0  0  0  0  0  0  0  0  0  0  0  0
    4.6542   -4.3500    0.0000 C   0  0  0  0  0  0  0  0  0  0  0  0
    6.8042   -3.1042    0.0000 C   0  0  0  0  0  0  0  0  0  0  0  0
    6.0917   -4.3500    0.0000 C   0  0  0  0  0  0  0  0  0  0  0  0
    5.3792   -4.7542    0.0000 C   0  0  0  0  0  0  0  0  0  0  0  0
    5.3792   -2.2792    0.0000 C   0  0  0  0  0  0  0  0  0  0  0  0
    3.9417   -4.7542    0.0000 C   0  0  0  0  0  0  0  0  0  0  0  0
    6.8042   -2.2792    0.0000 C   0  0  0  0  0  0  0  0  0  0  0  0
    6.0917   -1.8667    0.0000 C   0  0  0  0  0  0  0  0  0  0  0  0
    7.5292   -3.5292    0.0000 C   0  0  0  0  0  0  0  0  0  0  0  0
    3.9417   -3.1042    0.0000 C   0  0  0  0  0  0  0  0  0  0  0  0
    4.6542   -2.6917    0.0000 C   0  0  0  0  0  0  0  0  0  0  0  0
    7.5292   -1.8542    0.0000 O   0  0  0  0  0  0  0  0  0  0  0  0
    3.2292   -4.3500    0.0000 C   0  0  0  0  0  0  0  0  0  0  0  0
    3.2292   -3.5167    0.0000 C   0  0  0  0  0  0  0  0  0  0  0  0
    4.5417   -5.3417    0.0000 C   0  0  0  0  0  0  0  0  0  0  0  0
    3.3792   -5.3417    0.0000 C   0  0  0  0  0  0  0  0  0  0  0  0
    7.5167   -4.3542    0.0000 C   0  0  0  0  0  0  0  0  0  0  0  0
    8.2417   -3.1167    0.0000 C   0  0  0  0  0  0  0  0  0  0  0  0
  2  3  1  0
  3  1  1  0
  4  1  1  0
  5  2  2  0
  6  7  1  0
  7  4  1  0
  8  3  2  0
  9  4  1  0
 10 11  2  0
 11  8  1  0
 12  5  1  0
 13  1  1  0
  1 14  1  1
 15 10  1  0
 16 17  1  0
 17 13  1  0
 18  9  1  0
 19  9  1  0
 20 12  1  0
 21 12  1  0
 16  9  1  0
  2  6  1  0
 10  5  1  0
M  END
>  <ID>  (1727) 


>  <MOLENAME>  (1727) 
TOTAROL

>  <therap>  (1727) 
nan

>  <ref>  (1727) 
Aust J Chem 48: 883 (1995)

>  <cas#>  (1727) 
511-15-9

>  <source>  (1727) 
Podocarpus spp, Dacrydium cupressinum, Tetraclinis articulata and Thujopsis dolabrata

>  <status>  (1727) 
undetermined activity

>  <tradename>  (1727) 
nan

>  <SMILES>  (1727) 
CC(C)c1c2CCC3C(C)(C)CCC[C@]3(C)c2ccc1O

>  <standardized_failed>  (1727) 
False

$$$$

     RDKit          2D

 16 17  0  0  0  0  0  0  0  0999 V2000
    1.8000   -2.5250    0.0000 C   0  0  0  0  0  0  0  0  0  0  0  0
    2.2792   -3.1917    0.0000 O   0  0  0  0  0  0  0  0  0  0  0  0
    4.5042   -2.1167    0.0000 C   0  0  0  0  0  0  0  0  0  0  0  0
    3.0667   -2.9417    0.0000 C   0  0  0  0  0  0  0  0  0  0  0  0
    2.2792   -1.8750    0.0000 C   0  0  0  0  0  0  0  0  0  0  0  0
    3.0667   -2.1167    0.0000 C   0  0  0  0  0  0  0  0  0  0  0  0
    3.7917   -1.7125    0.0000 C   0  0  0  0  0  0  0  0  0  0  0  0
    4.5042   -2.9417    0.0000 C   0  0  0  0  0  0  0  0  0  0  0  0
    3.7917   -3.3542    0.0000 C   0  0  0  0  0  0  0  0  0  0  0  0
    0.9625   -2.5250    0.0000 C   0  0  0  0  0  0  0  0  0  0  0  0
    5.2375   -1.7125    0.0000 C   0  0  0  0  0  0  0  0  0  0  0  0
    5.9417   -2.1417    0.0000 O   0  0  0  0  0  0  0  0  0  0  0  0
    0.5417   -1.8042    0.0000 C   0  0  0  0  0  0  0  0  0  0  0  0
    5.2375   -3.3292    0.0000 O   0  0  0  0  0  0  0  0  0  0  0  0
    0.5625   -3.2417    0.0000 C   0  0  0  0  0  0  0  0  0  0  0  0
    5.2500   -0.8875    0.0000 C   0  0  0  0  0  0  0  0  0  0  0  0
  2  1  1  0
  3  7  1  0
  4  2  1  0
  5  1  2  0
  6  5  1  0
  7  6  2  0
  8  9  1  0
  9  4  2  0
 10  1  1  0
 11  3  1  0
 12 11  2  0
 13 10  2  0
 14  8  1  0
 15 10  1  0
 16 11  1  0
  4  6  1  0
  8  3  2  0
M  END
>  <ID>  (1728) 


>  <MOLENAME>  (1728) 
EUPARIN

>  <therap>  (1728) 
nan

>  <ref>  (1728) 
J Chem Soc 1939:925

>  <cas#>  (1728) 
532-48-9

>  <source>  (1728) 
Eupatorium macculatum

>  <status>  (1728) 
undetermined activity

>  <tradename>  (1728) 
nan

>  <SMILES>  (1728) 
C=C(C)c1cc2cc(C(C)=O)c(O)cc2o1

>  <standardized_failed>  (1728) 
False

$$$$

     RDKit          2D

 16 18  0  0  0  0  0  0  0  0999 V2000
    5.8917   -2.2833    0.0000 C   0  0  0  0  0  0  0  0  0  0  0  0
    5.8917   -3.1083    0.0000 C   0  0  0  0  0  0  0  0  0  0  0  0
    5.1792   -1.8708    0.0000 C   0  0  0  0  0  0  0  0  0  0  0  0
    6.6042   -1.8708    0.0000 O   0  0  0  0  0  0  0  0  0  0  0  0
    4.4625   -2.2833    0.0000 C   0  0  0  0  0  0  0  0  0  0  0  0
    6.6042   -3.5208    0.0000 C   0  0  0  0  0  0  0  0  0  0  0  0
    5.1792   -3.5208    0.0000 C   0  0  0  0  0  0  0  0  0  0  0  0
    4.4625   -3.1083    0.0000 C   0  0  0  0  0  0  0  0  0  0  0  0
    7.3208   -2.2833    0.0000 C   0  0  0  0  0  0  0  0  0  0  0  0
    7.3208   -3.1083    0.0000 C   0  0  0  0  0  0  0  0  0  0  0  0
    3.8458   -1.7250    0.0000 O   0  0  0  0  0  0  0  0  0  0  0  0
    5.0042   -1.0625    0.0000 C   0  0  0  0  0  0  0  0  0  0  0  0
    4.1875   -0.9792    0.0000 C   0  0  0  0  0  0  0  0  0  0  0  0
    8.0417   -1.8708    0.0000 O   0  0  0  0  0  0  0  0  0  0  0  0
    5.1792   -4.3458    0.0000 O   0  0  0  0  0  0  0  0  0  0  0  0
    5.8917   -4.7583    0.0000 C   0  0  0  0  0  0  0  0  0  0  0  0
  2  1  2  0
  3  1  1  0
  4  1  1  0
  5  3  2  0
  6  2  1  0
  7  2  1  0
  8  5  1  0
  9  4  1  0
 10  9  1  0
 11  5  1  0
 12  3  1  0
 13 12  2  0
 14  9  2  0
 15  7  1  0
 16 15  1  0
 10  6  2  0
 13 11  1  0
  7  8  2  0
M  END
>  <ID>  (1729) 


>  <MOLENAME>  (1729) 
ISOBERGAPTENE

>  <therap>  (1729) 
nan

>  <ref>  (1729) 
Ber 70:1253 (1937)

>  <cas#>  (1729) 
482-48-4

>  <source>  (1729) 
Heracleum and other Umbelliferaceae

>  <status>  (1729) 
undetermined activity

>  <tradename>  (1729) 
nan

>  <SMILES>  (1729) 
COc1cc2c(cco2)c2c1ccc(=O)o2

>  <standardized_failed>  (1729) 
False

$$$$

     RDKit          2D

 48 53  0  0  0  0  0  0  0  0999 V2000
    8.5125   -4.3375    0.0000 C   0  0  0  0  0  0  0  0  0  0  0  0
    9.2750   -3.9000    0.0000 C   0  0  0  0  0  0  0  0  0  0  0  0
    8.5125   -5.2375    0.0000 C   0  0  0  0  0  0  0  0  0  0  0  0
    6.9375   -5.2375    0.0000 C   0  0  0  0  0  0  0  0  0  0  0  0
    7.7000   -5.6875    0.0000 C   0  0  0  0  0  0  0  0  0  0  0  0
    6.9375   -4.3375    0.0000 C   0  0  0  0  0  0  0  0  0  0  0  0
    9.2875   -5.0500    0.0000 C   0  0  0  0  0  0  0  0  0  0  0  0
    7.7000   -3.9000    0.0000 O   0  0  0  0  0  0  0  0  0  0  0  0
    5.3875   -4.3375    0.0000 C   0  0  0  0  0  0  0  0  0  0  0  0
    5.3875   -5.2375    0.0000 C   0  0  0  0  0  0  0  0  0  0  0  0
    8.8125   -3.3500    0.0000 O   0  0  0  0  0  0  0  0  0  0  0  0
    6.1625   -5.6875    0.0000 C   0  0  0  0  0  0  0  0  0  0  0  0
    6.1625   -3.9000    0.0000 C   0  0  0  0  0  0  0  0  0  0  0  0
    9.2750   -5.6875    0.0000 C   0  0  0  0  0  0  0  0  0  0  0  0
   10.0500   -4.3375    0.0000 C   0  0  0  0  0  0  0  0  0  0  0  0
    8.2750   -3.6000    0.0000 C   0  0  0  0  0  0  0  0  0  0  0  0
   10.0500   -5.2375    0.0000 C   0  0  0  0  0  0  0  0  0  0  0  0
   10.8250   -5.7875    0.0000 C   0  0  0  0  0  0  0  0  0  0  0  0
    4.6125   -5.6875    0.0000 C   0  0  0  0  0  0  0  0  0  0  0  0
    4.6125   -3.9000    0.0000 O   0  0  0  0  0  0  0  0  0  0  0  0
    9.4500   -3.0667    0.0000 C   0  0  0  0  0  0  0  0  0  0  0  0
    8.7625   -2.3167    0.0000 C   0  0  0  0  0  0  0  0  0  0  0  0
    6.1625   -2.9875    0.0000 C   0  0  0  0  0  0  0  0  0  0  0  0
   10.3292   -1.1000    0.0000 C   0  0  0  0  0  0  0  0  0  0  0  0
    9.3250   -1.3875    0.0000 C   0  0  0  0  0  0  0  0  0  0  0  0
    3.8375   -5.2375    0.0000 C   0  0  0  0  0  0  0  0  0  0  0  0
    3.8375   -4.3375    0.0000 C   0  0  0  0  0  0  0  0  0  0  0  0
    5.3875   -2.5625    0.0000 C   0  0  0  0  0  0  0  0  0  0  0  0
    7.7000   -6.5875    0.0000 O   0  0  0  0  0  0  0  0  0  0  0  0
   10.8625   -3.8750    0.0000 O   0  0  0  0  0  0  0  0  0  0  0  0
   10.5125   -0.4500    0.0000 O   0  0  0  0  0  0  0  0  0  0  0  0
    5.3875   -1.6500    0.0000 C   0  0  0  0  0  0  0  0  0  0  0  0
    1.0500   -4.3292    0.0000 C   0  0  0  0  0  0  0  0  0  0  0  0
    1.7542   -3.9250    0.0000 C   0  0  0  0  0  0  0  0  0  0  0  0
    6.1625   -6.5875    0.0000 O   0  0  0  0  0  0  0  0  0  0  0  0
   11.0792   -1.6292    0.0000 O   0  0  0  0  0  0  0  0  0  0  0  0
    7.4875   -3.4375    0.0000 C   0  0  0  0  0  0  0  0  0  0  0  0
    8.0750   -2.6625    0.0000 C   0  0  0  0  0  0  0  0  0  0  0  0
    2.4375   -4.3375    0.0000 C   0  0  0  0  0  0  0  0  0  0  0  0
    3.1292   -3.9375    0.0000 C   0  0  0  0  0  0  0  0  0  0  0  0
    8.7625   -0.5750    0.0000 C   0  0  0  0  0  0  0  0  0  0  0  0
    3.8375   -3.3875    0.0000 C   0  0  0  0  0  0  0  0  0  0  0  0
    4.6125   -1.2125    0.0000 C   0  0  0  0  0  0  0  0  0  0  0  0
    6.1625   -1.2125    0.0000 C   0  0  0  0  0  0  0  0  0  0  0  0
    1.0750   -5.0500    0.0000 C   0  0  0  0  0  0  0  0  0  0  0  0
    0.3542   -3.9250    0.0000 C   0  0  0  0  0  0  0  0  0  0  0  0
    6.9417   -7.0375    0.0000 C   0  0  0  0  0  0  0  0  0  0  0  0
   10.9917   -2.5417    0.0000 C   0  0  0  0  0  0  0  0  0  0  0  0
  2  1  1  0
  3  1  1  0
  4  6  2  0
  5  3  1  0
  6  8  1  0
  7  1  1  0
  8  1  1  0
  9 13  2  0
 10  9  1  0
 11  2  1  0
 12  4  1  0
 13  6  1  0
 14  3  2  0
 15  2  1  0
 16  7  1  0
 17 18  1  0
 18  7  1  0
 19 10  1  0
 20  9  1  0
 21  2  1  0
 22 21  1  0
 23 13  1  0
 24 25  1  0
 25 22  2  0
 26 27  1  0
 27 20  1  0
 28 23  1  0
 29  5  2  0
 30 15  2  0
 31 24  2  0
 32 28  2  0
 33 34  2  0
 34 39  1  0
 35 12  1  0
 36 24  1  0
 37 16  1  0
 38 16  1  0
 39 40  1  0
 40 27  1  0
 41 25  1  0
 42 27  1  0
 43 32  1  0
 44 32  1  0
 45 33  1  0
 46 33  1  0
 47 35  1  0
 48 36  1  0
 16 11  1  0
  4  5  1  0
 17 15  1  0
 14 17  1  0
 10 12  2  0
 19 26  2  0
M  END
>  <ID>  (1730) 


>  <MOLENAME>  (1730) 
METHYL GAMBOGATE METHYL ETHER

>  <therap>  (1730) 
nan

>  <ref>  (1730) 
nan

>  <cas#>  (1730) 
nan

>  <source>  (1730) 
semisynthetic; derivative of gambogic acid

>  <status>  (1730) 
undetermined activity

>  <tradename>  (1730) 
nan

>  <SMILES>  (1730) 
COC(=O)/C(C)=C\CC12OC(C)(C)C3CC(C=C4C(=O)c5c(OC431)c(CC=C(C)C)c1OC(C)(CCC=C(C)C)C=Cc1c5OC)C2=O

>  <standardized_failed>  (1730) 
False

$$$$

     RDKit          2D

 17 18  0  0  0  0  0  0  0  0999 V2000
    3.2417   -1.2542    0.0000 C   0  0  0  0  0  0  0  0  0  0  0  0
    2.5292   -1.6667    0.0000 C   0  0  0  0  0  0  0  0  0  0  0  0
    3.9542   -1.6667    0.0000 C   0  0  0  0  0  0  0  0  0  0  0  0
    1.8042   -1.2542    0.0000 C   0  0  0  0  0  0  0  0  0  0  0  0
    2.5292   -2.5000    0.0000 O   0  0  0  0  0  0  0  0  0  0  0  0
    1.0917   -1.6667    0.0000 C   0  0  0  0  0  0  0  0  0  0  0  0
    1.8042   -0.4292    0.0000 C   0  0  0  0  0  0  0  0  0  0  0  0
    4.6750   -1.2542    0.0000 C   0  0  0  0  0  0  0  0  0  0  0  0
    0.3792   -0.4292    0.0000 C   0  0  0  0  0  0  0  0  0  0  0  0
    0.3792   -1.2542    0.0000 C   0  0  0  0  0  0  0  0  0  0  0  0
    1.0917   -0.0167    0.0000 C   0  0  0  0  0  0  0  0  0  0  0  0
   -0.3458   -0.0042    0.0000 O   0  0  0  0  0  0  0  0  0  0  0  0
    4.6750   -0.4292    0.0000 C   0  0  0  0  0  0  0  0  0  0  0  0
    5.3917   -1.6667    0.0000 C   0  0  0  0  0  0  0  0  0  0  0  0
    6.1042   -1.2542    0.0000 C   0  0  0  0  0  0  0  0  0  0  0  0
    5.3875   -0.0167    0.0000 C   0  0  0  0  0  0  0  0  0  0  0  0
    6.1042   -0.4292    0.0000 C   0  0  0  0  0  0  0  0  0  0  0  0
  2  1  1  0
  3  1  2  0
  4  2  1  0
  5  2  2  0
  6  4  2  0
  7  4  1  0
  8  3  1  0
  9 11  1  0
 10  6  1  0
 11  7  2  0
 12  9  1  0
 13  8  2  0
 14  8  1  0
 15 14  2  0
 16 13  1  0
 17 15  1  0
  9 10  2  0
 16 17  2  0
M  END
>  <ID>  (1731) 


>  <MOLENAME>  (1731) 
4'-HYDROXYCHALCONE

>  <therap>  (1731) 
nan

>  <ref>  (1731) 
JACS 52:2538 (1930)

>  <cas#>  (1731) 
2657-25-2

>  <source>  (1731) 
Shorea robusta aglycone

>  <status>  (1731) 
undetermined activity

>  <tradename>  (1731) 
nan

>  <SMILES>  (1731) 
O=C(/C=C/c1ccccc1)c1ccc(O)cc1

>  <standardized_failed>  (1731) 
False

$$$$

     RDKit          2D

 23 25  0  0  0  0  0  0  0  0999 V2000
    5.1500   -2.4875    0.0000 C   0  0  0  0  0  0  0  0  0  0  0  0
    6.5667   -2.4875    0.0000 C   0  0  0  0  0  0  0  0  0  0  0  0
    5.8542   -2.0750    0.0000 C   0  0  0  0  0  0  0  0  0  0  0  0
    5.1500   -3.3000    0.0000 C   0  0  0  0  0  0  0  0  0  0  0  0
    6.5750   -3.3000    0.0000 O   0  0  0  0  0  0  0  0  0  0  0  0
    5.8625   -3.7125    0.0000 C   0  0  0  0  0  0  0  0  0  0  0  0
    4.4417   -2.0750    0.0000 C   0  0  0  0  0  0  0  0  0  0  0  0
    5.8542   -1.2500    0.0000 O   0  0  0  0  0  0  0  0  0  0  0  0
    7.2792   -2.0750    0.0000 C   0  0  0  0  0  0  0  0  0  0  0  0
    3.7375   -2.4875    0.0000 C   0  0  0  0  0  0  0  0  0  0  0  0
    7.2792   -1.2500    0.0000 C   0  0  0  0  0  0  0  0  0  0  0  0
    6.5667   -0.8375    0.0000 C   0  0  0  0  0  0  0  0  0  0  0  0
    4.4500   -3.7125    0.0000 C   0  0  0  0  0  0  0  0  0  0  0  0
    3.7417   -3.3125    0.0000 C   0  0  0  0  0  0  0  0  0  0  0  0
    5.8625   -4.5375    0.0000 O   0  0  0  0  0  0  0  0  0  0  0  0
    4.4417   -1.2500    0.0000 O   0  0  0  0  0  0  0  0  0  0  0  0
    7.9917   -2.4875    0.0000 O   0  0  0  0  0  0  0  0  0  0  0  0
    7.9917   -0.8375    0.0000 O   0  0  0  0  0  0  0  0  0  0  0  0
    3.0250   -2.0750    0.0000 O   0  0  0  0  0  0  0  0  0  0  0  0
    3.0292   -3.7250    0.0000 O   0  0  0  0  0  0  0  0  0  0  0  0
    6.5667   -0.0125    0.0000 C   0  0  0  0  0  0  0  0  0  0  0  0
    7.2792    0.4000    0.0000 O   0  0  0  0  0  0  0  0  0  0  0  0
    3.0167   -1.2500    0.0000 C   0  0  0  0  0  0  0  0  0  0  0  0
  2  3  1  0
  3  1  1  0
  4  1  2  0
  5  6  1  0
  6  4  1  0
  7  1  1  0
  3  8  1  1
  9  2  1  0
 10  7  2  0
 11 12  1  0
 12  8  1  0
 13  4  1  0
 14 10  1  0
 15  6  2  0
 16  7  1  0
  9 17  1  6
 11 18  1  1
 19 10  1  0
 20 14  1  0
 12 21  1  6
 22 21  1  0
 23 19  1  0
 13 14  2  0
  2  5  1  6
  9 11  1  0
M  END
>  <ID>  (1732) 


>  <MOLENAME>  (1732) 
BERGENIN

>  <therap>  (1732) 
hepatoprotectant

>  <ref>  (1732) 
J Chem Soc 1958: 2231; Org Biomol Chem. 6:2713 (2008)

>  <cas#>  (1732) 
477-90-7

>  <source>  (1732) 
Bergenia spp.

>  <status>  (1732) 
JAN

>  <tradename>  (1732) 
CUSCUTIN

>  <SMILES>  (1732) 
COc1c(O)c2c(cc1O)C(=O)O[C@H]1[C@@H](O)[C@H](O)[C@@H](CO)O[C@H]21

>  <standardized_failed>  (1732) 
False

$$$$

     RDKit          2D

 23 25  0  0  0  0  0  0  0  0999 V2000
    1.6750   -2.3042    0.0000 C   0  0  0  0  0  0  0  0  0  0  0  0
    1.8917   -3.1500    0.0000 C   0  0  0  0  0  0  0  0  0  0  0  0
    0.7667   -2.3167    0.0000 C   0  0  0  0  0  0  0  0  0  0  0  0
    1.6542   -0.5542    0.0000 C   0  0  0  0  0  0  0  0  0  0  0  0
    0.3250   -3.1042    0.0000 C   0  0  0  0  0  0  0  0  0  0  0  0
    1.1917   -1.4792    0.0000 C   0  0  0  0  0  0  0  0  0  0  0  0
    1.1417   -3.7417    0.0000 C   0  0  0  0  0  0  0  0  0  0  0  0
    2.6292   -2.3042    0.0000 C   0  0  0  0  0  0  0  0  0  0  0  0
    2.6125   -0.5542    0.0000 C   0  0  0  0  0  0  0  0  0  0  0  0
    2.6042   -3.3875    0.0000 O   0  0  0  0  0  0  0  0  0  0  0  0
    0.3042   -1.4500    0.0000 C   0  0  0  0  0  0  0  0  0  0  0  0
    2.9917    0.0833    0.0000 O   0  0  0  0  0  0  0  0  0  0  0  0
    2.7542   -4.1250    0.0000 C   0  0  0  0  0  0  0  0  0  0  0  0
    3.8292    0.0958    0.0000 C   0  0  0  0  0  0  0  0  0  0  0  0
    0.7417   -0.5625    0.0000 C   0  0  0  0  0  0  0  0  0  0  0  0
    3.1125   -1.4792    0.0000 C   0  0  0  0  0  0  0  0  0  0  0  0
    2.3000   -4.7667    0.0000 O   0  0  0  0  0  0  0  0  0  0  0  0
    4.1125   -0.5792    0.0000 O   0  0  0  0  0  0  0  0  0  0  0  0
   -0.4250   -3.1125    0.0000 C   0  0  0  0  0  0  0  0  0  0  0  0
    0.3292   -3.8542    0.0000 C   0  0  0  0  0  0  0  0  0  0  0  0
    1.6417    0.1958    0.0000 C   0  0  0  0  0  0  0  0  0  0  0  0
    4.1292    0.7208    0.0000 C   0  0  0  0  0  0  0  0  0  0  0  0
    3.4667   -4.3625    0.0000 C   0  0  0  0  0  0  0  0  0  0  0  0
  2  1  1  0
  3  1  1  0
  4  6  1  0
  5  3  1  0
  6  1  1  0
  7  2  1  0
  8  1  1  0
  9 16  1  0
 10  2  1  0
 11  3  1  0
 12  9  1  0
 13 10  1  0
 14 12  1  0
 15  4  1  0
 16  8  1  0
 17 13  2  0
 18 14  2  0
 19  5  1  0
 20  5  1  0
 21  4  1  0
 22 14  1  0
 23 13  1  0
  7  5  1  0
  4  9  1  0
 15 11  1  0
M  END
>  <ID>  (1733) 


>  <MOLENAME>  (1733) 
CLOVANEDIOL DIACETATE

>  <therap>  (1733) 
nan

>  <ref>  (1733) 
Chem Pharm Bull 42: 138 (1994)

>  <cas#>  (1733) 
nan

>  <source>  (1733) 
derivative Dipterocarpus pilosus, Salvia canariensis, Viguiera oaxacana, Sindora sumatrana

>  <status>  (1733) 
undetermined activity

>  <tradename>  (1733) 
nan

>  <SMILES>  (1733) 
CC(=O)OC1CCC23CC1(C)CCC2C(C)(C)CC3OC(C)=O

>  <standardized_failed>  (1733) 
False

$$$$

     RDKit          2D

 23 25  0  0  0  0  0  0  0  0999 V2000
   -0.3458   -0.8667    0.0000 C   0  0  0  0  0  0  0  0  0  0  0  0
    0.4875   -0.4000    0.0000 C   0  0  0  0  0  0  0  0  0  0  0  0
    0.4875   -2.3000    0.0000 C   0  0  0  0  0  0  0  0  0  0  0  0
   -0.3458   -1.8167    0.0000 C   0  0  0  0  0  0  0  0  0  0  0  0
    1.3167   -0.8667    0.0000 C   0  0  0  0  0  0  0  0  0  0  0  0
    1.3167   -1.8167    0.0000 C   0  0  0  0  0  0  0  0  0  0  0  0
    0.4875    0.5708    0.0000 C   0  0  0  0  0  0  0  0  0  0  0  0
   -1.1708   -2.3000    0.0000 C   0  0  0  0  0  0  0  0  0  0  0  0
   -0.3458    2.0000    0.0000 C   0  0  0  0  0  0  0  0  0  0  0  0
    0.4875   -3.2667    0.0000 O   0  0  0  0  0  0  0  0  0  0  0  0
   -0.9625    3.4000    0.0000 O   0  0  0  0  0  0  0  0  0  0  0  0
   -1.1708    2.4708    0.0000 C   0  0  0  0  0  0  0  0  0  0  0  0
    0.3667    2.6500    0.0000 C   0  0  0  0  0  0  0  0  0  0  0  0
   -0.0333    3.5208    0.0000 C   0  0  0  0  0  0  0  0  0  0  0  0
    1.3000    0.0708    0.0000 O   0  0  0  0  0  0  0  0  0  0  0  0
   -0.3458    1.0500    0.0000 C   0  0  0  0  0  0  0  0  0  0  0  0
   -1.1708   -0.4000    0.0000 C   0  0  0  0  0  0  0  0  0  0  0  0
   -0.3500    0.0458    0.0000 C   0  0  0  0  0  0  0  0  0  0  0  0
    2.1500   -0.4000    0.0000 C   0  0  0  0  0  0  0  0  0  0  0  0
   -2.0000   -1.8167    0.0000 C   0  0  0  0  0  0  0  0  0  0  0  0
   -2.0000   -0.8667    0.0000 C   0  0  0  0  0  0  0  0  0  0  0  0
   -0.3708   -2.7042    0.0000 C   0  0  0  0  0  0  0  0  0  0  0  0
   -2.0208   -2.7667    0.0000 C   0  0  0  0  0  0  0  0  0  0  0  0
  2  1  1  0
  3  4  1  0
  4  1  1  0
  5  2  1  0
  6  3  1  0
  7  2  1  0
  8  4  1  0
  9 16  1  0
 10  3  2  0
 11 12  1  0
 12  9  2  0
 13  9  1  0
 14 13  2  0
  2 15  1  6
 16  7  1  0
 17  1  1  0
  1 18  1  1
 19  5  1  0
 20 21  1  0
 21 17  1  0
 22  8  1  0
 23  8  1  0
 20  8  1  0
  5  6  2  0
 11 14  1  0
M  END
>  <ID>  (1734) 


>  <MOLENAME>  (1734) 
SOLIDAGENONE

>  <therap>  (1734) 
nan

>  <ref>  (1734) 
Tetrahedron 25, 2233 (1969)

>  <cas#>  (1734) 
23534-56-7

>  <source>  (1734) 
Solidago canadensis L.; mp 133-134 C

>  <status>  (1734) 
undetermined activity

>  <tradename>  (1734) 
nan

>  <SMILES>  (1734) 
CC1=CC(=O)C2C(C)(C)CCC[C@]2(C)[C@@]1(O)CCc1cocc1

>  <standardized_failed>  (1734) 
False

$$$$

     RDKit          2D

 17 18  0  0  0  0  0  0  0  0999 V2000
    6.1792   -6.2667    0.0000 N   0  0  0  0  0  0  0  0  0  0  0  0
    5.7750   -5.0000    0.0000 C   0  0  0  0  0  0  0  0  0  0  0  0
    6.8417   -5.7917    0.0000 C   0  0  0  0  0  0  0  0  0  0  0  0
    6.5917   -5.0042    0.0000 C   0  0  0  0  0  0  0  0  0  0  0  0
    5.5167   -5.7792    0.0000 C   0  0  0  0  0  0  0  0  0  0  0  0
    6.8917   -2.1667    0.0000 C   0  0  0  0  0  0  0  0  0  0  0  0
    5.2250   -4.3792    0.0000 C   0  0  0  0  0  0  0  0  0  0  0  0
    6.0792   -2.0917    0.0000 O   0  0  0  0  0  0  0  0  0  0  0  0
    4.7042   -5.9500    0.0000 C   0  0  0  0  0  0  0  0  0  0  0  0
    7.2292   -2.9167    0.0000 N   0  0  0  0  0  0  0  0  0  0  0  0
    4.4167   -4.5500    0.0000 C   0  0  0  0  0  0  0  0  0  0  0  0
    4.1542   -5.3292    0.0000 C   0  0  0  0  0  0  0  0  0  0  0  0
    6.7500   -3.5792    0.0000 C   0  0  0  0  0  0  0  0  0  0  0  0
    7.0875   -4.3292    0.0000 C   0  0  0  0  0  0  0  0  0  0  0  0
    3.8625   -3.9292    0.0000 O   0  0  0  0  0  0  0  0  0  0  0  0
    7.3750   -1.5042    0.0000 C   0  0  0  0  0  0  0  0  0  0  0  0
    4.1167   -3.1500    0.0000 C   0  0  0  0  0  0  0  0  0  0  0  0
  2  5  2  0
  3  1  1  0
  4  3  2  0
  5  1  1  0
  6 10  1  0
  7  2  1  0
  8  6  2  0
  9  5  1  0
 10 13  1  0
 11 12  1  0
 12  9  2  0
 13 14  1  0
 14  4  1  0
 15 11  1  0
 16  6  1  0
 17 15  1  0
  4  2  1  0
 11  7  2  0
M  END
>  <ID>  (1735) 


>  <MOLENAME>  (1735) 
MELATONIN

>  <therap>  (1735) 
sleep induction, modifies circadian rhythm

>  <ref>  (1735) 
nan

>  <cas#>  (1735) 
73-31-4

>  <source>  (1735) 
pineal gland

>  <status>  (1735) 
experimental

>  <tradename>  (1735) 
nan

>  <SMILES>  (1735) 
COc1cc2c(cc1)[nH]cc2CCNC(C)=O

>  <standardized_failed>  (1735) 
False

$$$$

     RDKit          2D

 12 12  0  0  0  0  0  0  0  0999 V2000
    1.9167   -3.5750    0.0000 C   0  0  0  0  0  0  0  0  0  0  0  0
    1.9167   -2.7417    0.0000 C   0  0  0  0  0  0  0  0  0  0  0  0
    1.2042   -2.3292    0.0000 C   0  0  0  0  0  0  0  0  0  0  0  0
    1.2042   -3.9875    0.0000 C   0  0  0  0  0  0  0  0  0  0  0  0
    2.6375   -3.9875    0.0000 C   0  0  0  0  0  0  0  0  0  0  0  0
    2.6375   -4.8125    0.0000 O   0  0  0  0  0  0  0  0  0  0  0  0
    0.4917   -2.7500    0.0000 C   0  0  0  0  0  0  0  0  0  0  0  0
    2.6292   -2.3292    0.0000 O   0  0  0  0  0  0  0  0  0  0  0  0
    0.4917   -3.5750    0.0000 C   0  0  0  0  0  0  0  0  0  0  0  0
   -0.2208   -2.3375    0.0000 O   0  0  0  0  0  0  0  0  0  0  0  0
    3.3500   -3.5667    0.0000 C   0  0  0  0  0  0  0  0  0  0  0  0
   -0.2208   -1.5125    0.0000 C   0  0  0  0  0  0  0  0  0  0  0  0
  2  1  2  0
  3  2  1  0
  4  1  1  0
  5  1  1  0
  6  5  2  0
  7  9  1  0
  8  2  1  0
  9  4  2  0
 10  7  1  0
 11  5  1  0
 12 10  1  0
  7  3  2  0
M  END
>  <ID>  (1736) 


>  <MOLENAME>  (1736) 
PAEONOL

>  <therap>  (1736) 
antibacterial

>  <ref>  (1736) 
nan

>  <cas#>  (1736) 
552-41-0

>  <source>  (1736) 
Paeonia montan, Xanthorrhoea spp

>  <status>  (1736) 
experimental

>  <tradename>  (1736) 
nan

>  <SMILES>  (1736) 
COc1cc(O)c(C(C)=O)cc1

>  <standardized_failed>  (1736) 
False

$$$$

     RDKit          2D

 30 35  0  0  0  0  0  0  0  0999 V2000
    5.4667   -3.1125    0.0000 C   0  0  0  0  0  0  0  0  0  0  0  0
    7.5375   -2.3750    0.0000 C   0  0  0  0  0  0  0  0  0  0  0  0
    5.4667   -3.9625    0.0000 C   0  0  0  0  0  0  0  0  0  0  0  0
    3.3292   -4.3667    0.0000 C   0  0  0  0  0  0  0  0  0  0  0  0
    6.2750   -2.8667    0.0000 C   0  0  0  0  0  0  0  0  0  0  0  0
    7.5125   -3.2750    0.0000 O   0  0  0  0  0  0  0  0  0  0  0  0
    6.7500   -3.5417    0.0000 C   0  0  0  0  0  0  0  0  0  0  0  0
    4.0500   -3.9625    0.0000 C   0  0  0  0  0  0  0  0  0  0  0  0
    4.7625   -4.3667    0.0000 C   0  0  0  0  0  0  0  0  0  0  0  0
    6.2750   -4.2167    0.0000 C   0  0  0  0  0  0  0  0  0  0  0  0
    6.7625   -2.1917    0.0000 C   0  0  0  0  0  0  0  0  0  0  0  0
    7.8250   -1.5542    0.0000 O   0  0  0  0  0  0  0  0  0  0  0  0
    3.3292   -5.2042    0.0000 C   0  0  0  0  0  0  0  0  0  0  0  0
    4.7667   -2.7000    0.0000 C   0  0  0  0  0  0  0  0  0  0  0  0
    4.0500   -3.1125    0.0000 C   0  0  0  0  0  0  0  0  0  0  0  0
    2.6042   -3.9625    0.0000 C   0  0  0  0  0  0  0  0  0  0  0  0
    4.7625   -5.2042    0.0000 C   0  0  0  0  0  0  0  0  0  0  0  0
    8.3667   -2.1667    0.0000 C   0  0  0  0  0  0  0  0  0  0  0  0
    4.0500   -5.6000    0.0000 C   0  0  0  0  0  0  0  0  0  0  0  0
    2.6042   -5.6000    0.0000 C   0  0  0  0  0  0  0  0  0  0  0  0
    5.4875   -2.3042    0.0000 C   0  0  0  0  0  0  0  0  0  0  0  0
    8.8875   -1.9292    0.0000 C   0  0  0  0  0  0  0  0  0  0  0  0
    1.8875   -4.3667    0.0000 C   0  0  0  0  0  0  0  0  0  0  0  0
    1.8875   -5.2042    0.0000 C   0  0  0  0  0  0  0  0  0  0  0  0
    3.3292   -3.5417    0.0000 C   0  0  0  0  0  0  0  0  0  0  0  0
    9.2250   -2.5042    0.0000 C   0  0  0  0  0  0  0  0  0  0  0  0
    9.5625   -1.7167    0.0000 C   0  0  0  0  0  0  0  0  0  0  0  0
    1.1625   -5.6375    0.0000 O   0  0  0  0  0  0  0  0  0  0  0  0
    6.5375   -1.3875    0.0000 C   0  0  0  0  0  0  0  0  0  0  0  0
   10.3542   -2.0917    0.0000 C   0  0  0  0  0  0  0  0  0  0  0  0
  2 11  1  0
  3  1  1  0
  4  8  1  0
  5  1  1  1
  7  6  1  0
  7  5  1  0
  8 15  1  0
  9  3  1  0
 10  3  1  0
  5 11  1  0
  2 12  1  0
 13  4  1  0
 14  1  1  0
 15 14  1  0
 16  4  1  0
 17  9  1  0
  2 18  1  1
 19 17  1  0
 13 20  1  1
  1 21  1  1
 22 12  1  0
 23 16  1  0
 24 23  1  0
  4 25  1  1
 26 18  1  0
 27 26  1  0
 24 28  1  1
 11 29  1  6
 27 30  1  6
  7 10  1  1
  8  9  1  0
  2  6  1  0
 13 19  1  0
 22 27  1  0
 20 24  1  0
M  END
>  <ID>  (1737) 


>  <MOLENAME>  (1737) 
TIGOGENIN

>  <therap>  (1737) 
nan

>  <ref>  (1737) 
Chem Ind 1954:1320

>  <cas#>  (1737) 
77-60-1

>  <source>  (1737) 
Agavaceae, Dioscoreaceae, Solanaceae, Scrophulariaceae, Liliaceae genera

>  <status>  (1737) 
undetermined activity

>  <tradename>  (1737) 
nan

>  <SMILES>  (1737) 
C[C@H]1[C@H]2[C@H](CC3C4CC[C@H]5C[C@@H](O)CC[C@]5(C)C4CC[C@@]32C)O[C@]12CC[C@@H](C)CO2

>  <standardized_failed>  (1737) 
False

$$$$

     RDKit          2D

 19 21  0  0  0  0  0  0  0  0999 V2000
    2.9417   -3.0792    0.0000 C   0  0  0  0  0  0  0  0  0  0  0  0
    4.1917   -3.7667    0.0000 C   0  0  0  0  0  0  0  0  0  0  0  0
    3.0250   -3.7792    0.0000 C   0  0  0  0  0  0  0  0  0  0  0  0
    4.4125   -3.0792    0.0000 C   0  0  0  0  0  0  0  0  0  0  0  0
    5.2417   -2.2750    0.0000 C   0  0  0  0  0  0  0  0  0  0  0  0
    3.5917   -2.7125    0.0000 C   0  0  0  0  0  0  0  0  0  0  0  0
    2.7167   -2.2125    0.0000 C   0  0  0  0  0  0  0  0  0  0  0  0
    5.8667   -2.8042    0.0000 O   0  0  0  0  0  0  0  0  0  0  0  0
    2.2542   -4.1417    0.0000 C   0  0  0  0  0  0  0  0  0  0  0  0
    6.6417   -2.5250    0.0000 C   0  0  0  0  0  0  0  0  0  0  0  0
    4.1792   -2.4917    0.0000 C   0  0  0  0  0  0  0  0  0  0  0  0
    2.0042   -2.8917    0.0000 C   0  0  0  0  0  0  0  0  0  0  0  0
    1.5542   -3.7292    0.0000 C   0  0  0  0  0  0  0  0  0  0  0  0
    6.7917   -1.7125    0.0000 O   0  0  0  0  0  0  0  0  0  0  0  0
    4.3042   -4.5542    0.0000 C   0  0  0  0  0  0  0  0  0  0  0  0
    4.9000   -4.0542    0.0000 C   0  0  0  0  0  0  0  0  0  0  0  0
    5.4000   -1.6500    0.0000 C   0  0  0  0  0  0  0  0  0  0  0  0
    7.2750   -3.0542    0.0000 C   0  0  0  0  0  0  0  0  0  0  0  0
    1.7917   -2.0917    0.0000 C   0  0  0  0  0  0  0  0  0  0  0  0
  2  3  1  0
  3  1  1  0
  4  6  1  0
  5 11  1  0
  1  6  1  0
  1  7  1  1
  5  8  1  0
  3  9  1  6
 10  8  1  0
 11  7  1  0
 12  1  1  0
 13 12  1  0
 14 10  2  0
 15  2  1  0
 16  2  1  0
  5 17  1  6
 18 10  1  0
 12 19  1  1
  9 13  1  0
  4  2  1  0
  5  4  1  0
M  END
>  <ID>  (1738) 


>  <MOLENAME>  (1738) 
CEDRYL ACETATE

>  <therap>  (1738) 
nan

>  <ref>  (1738) 
nan

>  <cas#>  (1738) 
77-54-3

>  <source>  (1738) 
semisynthetic

>  <status>  (1738) 
undetermined activity

>  <tradename>  (1738) 
nan

>  <SMILES>  (1738) 
CC(=O)O[C@]1(C)CC[C@@]23CC1C(C)(C)[C@@H]2CC[C@H]3C

>  <standardized_failed>  (1738) 
False

$$$$

     RDKit          2D

 31 34  0  0  0  0  0  0  0  0999 V2000
    6.9167   -2.2792    0.0000 C   0  0  0  0  0  0  0  0  0  0  0  0
    3.1167   -1.8542    0.0000 C   0  0  0  0  0  0  0  0  0  0  0  0
    0.8417   -0.5375    0.0000 O   0  0  0  0  0  0  0  0  0  0  0  0
    1.6042   -0.9542    0.0000 C   0  0  0  0  0  0  0  0  0  0  0  0
    7.6792   -1.8542    0.0000 C   0  0  0  0  0  0  0  0  0  0  0  0
    6.9167   -3.1792    0.0000 C   0  0  0  0  0  0  0  0  0  0  0  0
    3.8792   -2.2792    0.0000 C   0  0  0  0  0  0  0  0  0  0  0  0
    1.6042   -1.8542    0.0000 C   0  0  0  0  0  0  0  0  0  0  0  0
    6.1542   -1.8542    0.0000 C   0  0  0  0  0  0  0  0  0  0  0  0
    0.0792   -0.9542    0.0000 C   0  0  0  0  0  0  0  0  0  0  0  0
    2.3542   -2.2792    0.0000 C   0  0  0  0  0  0  0  0  0  0  0  0
    7.6792   -3.6000    0.0000 O   0  0  0  0  0  0  0  0  0  0  0  0
    3.1167   -0.9542    0.0000 C   0  0  0  0  0  0  0  0  0  0  0  0
    2.3542   -0.5375    0.0000 C   0  0  0  0  0  0  0  0  0  0  0  0
    5.4042   -2.2792    0.0000 C   0  0  0  0  0  0  0  0  0  0  0  0
    4.6417   -1.8542    0.0000 C   0  0  0  0  0  0  0  0  0  0  0  0
    8.4417   -2.2792    0.0000 C   0  0  0  0  0  0  0  0  0  0  0  0
    0.0792   -1.8542    0.0000 C   0  0  0  0  0  0  0  0  0  0  0  0
    0.8417   -2.2792    0.0000 C   0  0  0  0  0  0  0  0  0  0  0  0
    8.4417   -3.1792    0.0000 C   0  0  0  0  0  0  0  0  0  0  0  0
    6.1542   -3.6000    0.0000 C   0  0  0  0  0  0  0  0  0  0  0  0
    3.8792   -3.1792    0.0000 O   0  0  0  0  0  0  0  0  0  0  0  0
    5.4042   -3.1792    0.0000 C   0  0  0  0  0  0  0  0  0  0  0  0
    3.8792   -0.5375    0.0000 O   0  0  0  0  0  0  0  0  0  0  0  0
    6.1542   -0.9542    0.0000 O   0  0  0  0  0  0  0  0  0  0  0  0
   -0.6958   -2.3042    0.0000 O   0  0  0  0  0  0  0  0  0  0  0  0
    0.0792   -0.0875    0.0000 C   0  0  0  0  0  0  0  0  0  0  0  0
   -0.6708   -1.3167    0.0000 C   0  0  0  0  0  0  0  0  0  0  0  0
    8.4292   -4.0667    0.0000 C   0  0  0  0  0  0  0  0  0  0  0  0
    9.1417   -2.8167    0.0000 C   0  0  0  0  0  0  0  0  0  0  0  0
    6.9167   -0.5375    0.0000 C   0  0  0  0  0  0  0  0  0  0  0  0
  2  7  1  0
  3  4  1  0
  4 14  2  0
  5  1  1  0
  6  1  2  0
  7 16  1  0
  8 11  2  0
  9  1  1  0
 10  3  1  0
 11  2  1  0
 12  6  1  0
 13  2  2  0
 14 13  1  0
 15  9  2  0
 16 15  1  0
 17  5  2  0
 18 19  1  0
 19  8  1  0
 20 12  1  0
 21  6  1  0
 22  7  2  0
 23 15  1  0
 24 13  1  0
 25  9  1  0
 26 18  1  0
 27 10  1  0
 28 10  1  0
 29 20  1  0
 30 20  1  0
 31 25  1  0
 23 21  2  0
 17 20  1  0
  4  8  1  0
 10 18  1  0
M  END
>  <ID>  (1739) 


>  <MOLENAME>  (1739) 
DIHYDROMUNDULETONE

>  <therap>  (1739) 
nan

>  <ref>  (1739) 
Proc Chem Soc 1959: 150

>  <cas#>  (1739) 
nan

>  <source>  (1739) 
derivative

>  <status>  (1739) 
undetermined activity

>  <tradename>  (1739) 
nan

>  <SMILES>  (1739) 
COc1c(CC(=O)c2c(O)cc3OC(C)(C)C(O)Cc3c2)ccc2c1C=CC(C)(C)O2

>  <standardized_failed>  (1739) 
False

$$$$

     RDKit          2D

 12 11  0  0  0  0  0  0  0  0999 V2000
    2.6167   -1.7375    0.0000 C   0  0  0  0  0  0  0  0  0  0  0  0
    1.9042   -2.1500    0.0000 C   0  0  0  0  0  0  0  0  0  0  0  0
    2.6167   -0.9125    0.0000 C   0  0  0  0  0  0  0  0  0  0  0  0
    1.9042   -2.9750    0.0000 C   0  0  0  0  0  0  0  0  0  0  0  0
    3.3292   -2.1500    0.0000 C   0  0  0  0  0  0  0  0  0  0  0  0
    4.0417   -1.7375    0.0000 C   0  0  0  0  0  0  0  0  0  0  0  0
    1.9042   -0.5000    0.0000 O   0  0  0  0  0  0  0  0  0  0  0  0
    2.6167   -3.3875    0.0000 O   0  0  0  0  0  0  0  0  0  0  0  0
    4.0417   -0.9125    0.0000 O   0  0  0  0  0  0  0  0  0  0  0  0
    3.3292   -0.5000    0.0000 O   0  0  0  0  0  0  0  0  0  0  0  0
    1.1875   -3.3875    0.0000 O   0  0  0  0  0  0  0  0  0  0  0  0
    4.7542   -2.1500    0.0000 O   0  0  0  0  0  0  0  0  0  0  0  0
  2  1  2  0
  3  1  1  0
  4  2  1  0
  5  1  1  0
  6  5  1  0
  7  3  2  0
  8  4  2  0
  9  6  2  0
 10  3  1  0
 11  4  1  0
 12  6  1  0
M  END
>  <ID>  (1740) 


>  <MOLENAME>  (1740) 
ACONITIC ACID

>  <therap>  (1740) 
nan

>  <ref>  (1740) 
Ind Eng Chem 33: 637 (1941)

>  <cas#>  (1740) 
585-84-2

>  <source>  (1740) 
Aconitum and Achillea spp

>  <status>  (1740) 
undetermined activity

>  <tradename>  (1740) 
nan

>  <SMILES>  (1740) 
O=C(O)/C=C(\CC(=O)O)C(=O)O

>  <standardized_failed>  (1740) 
False

$$$$

     RDKit          2D

 29 33  0  0  0  0  0  0  0  0999 V2000
   -0.9708   -0.2792    0.0000 C   0  0  0  0  0  0  0  0  0  0  0  0
   -0.2333   -0.7000    0.0000 C   0  0  0  0  0  0  0  0  0  0  0  0
    0.4875    0.5625    0.0000 C   0  0  0  0  0  0  0  0  0  0  0  0
   -0.9708    0.5625    0.0000 C   0  0  0  0  0  0  0  0  0  0  0  0
   -1.6958   -0.7000    0.0000 C   0  0  0  0  0  0  0  0  0  0  0  0
    0.4875   -0.2792    0.0000 C   0  0  0  0  0  0  0  0  0  0  0  0
   -0.2333    0.9833    0.0000 O   0  0  0  0  0  0  0  0  0  0  0  0
    1.2042    0.9833    0.0000 C   0  0  0  0  0  0  0  0  0  0  0  0
   -2.4125   -0.2792    0.0000 C   0  0  0  0  0  0  0  0  0  0  0  0
    2.5500    1.1333    0.0000 O   0  0  0  0  0  0  0  0  0  0  0  0
    1.9500    0.5625    0.0000 C   0  0  0  0  0  0  0  0  0  0  0  0
    1.3875    1.7958    0.0000 C   0  0  0  0  0  0  0  0  0  0  0  0
   -1.6958   -1.5375    0.0000 C   0  0  0  0  0  0  0  0  0  0  0  0
    2.2042    1.8833    0.0000 C   0  0  0  0  0  0  0  0  0  0  0  0
   -2.4125    0.5625    0.0000 O   0  0  0  0  0  0  0  0  0  0  0  0
   -3.1333   -0.7000    0.0000 C   0  0  0  0  0  0  0  0  0  0  0  0
    1.2042   -0.7000    0.0000 C   0  0  0  0  0  0  0  0  0  0  0  0
   -2.4125   -1.9542    0.0000 C   0  0  0  0  0  0  0  0  0  0  0  0
   -3.1333   -1.5375    0.0000 C   0  0  0  0  0  0  0  0  0  0  0  0
   -1.6958    0.9833    0.0000 C   0  0  0  0  0  0  0  0  0  0  0  0
   -0.2333   -1.5375    0.0000 O   0  0  0  0  0  0  0  0  0  0  0  0
    1.9500   -0.2792    0.0000 C   0  0  0  0  0  0  0  0  0  0  0  0
    2.6292    2.6333    0.0000 C   0  0  0  0  0  0  0  0  0  0  0  0
   -2.4125   -2.8000    0.0000 O   0  0  0  0  0  0  0  0  0  0  0  0
   -3.8500   -1.9542    0.0000 O   0  0  0  0  0  0  0  0  0  0  0  0
    3.4667    2.6625    0.0000 C   0  0  0  0  0  0  0  0  0  0  0  0
    2.1875    3.3583    0.0000 C   0  0  0  0  0  0  0  0  0  0  0  0
   -3.8500   -2.8000    0.0000 C   0  0  0  0  0  0  0  0  0  0  0  0
   -3.1333   -3.2167    0.0000 C   0  0  0  0  0  0  0  0  0  0  0  0
  2  1  1  0
  3  7  1  0
  4  1  2  0
  5  1  1  0
  6  2  1  0
  7  4  1  0
  8  3  2  0
  9  5  2  0
 10 11  1  0
 11  8  1  0
 12  8  1  0
 13  5  1  0
 14 12  1  0
 15  9  1  0
 16  9  1  0
 17  6  2  0
 18 13  2  0
 19 18  1  0
 20  4  1  0
 21  2  2  0
 22 17  1  0
 23 14  1  0
 24 18  1  0
 25 19  1  0
 26 23  1  0
 27 23  1  0
 28 25  1  0
 29 24  1  0
 20 15  1  0
  6  3  1  0
 16 19  2  0
 22 11  2  0
 14 10  1  0
M  END
>  <ID>  (1741) 


>  <MOLENAME>  (1741) 
DEHYDRODIHYDROROTENONE

>  <therap>  (1741) 
nan

>  <ref>  (1741) 
Chem Rev 12: 181 (1933); Phytochemistry 26: 2423 (1987)

>  <cas#>  (1741) 
6659-45-6

>  <source>  (1741) 
Chem Rev 12: 181 (1933)

>  <status>  (1741) 
undetermined activity

>  <tradename>  (1741) 
nan

>  <SMILES>  (1741) 
COc1cc2c(cc1OC)-c1c(CO2)oc2c3CC(C(C)C)Oc3ccc2c1=O

>  <standardized_failed>  (1741) 
False

$$$$

     RDKit          2D

 14 13  0  0  0  0  0  0  0  0999 V2000
    5.5000   -2.8500    0.0000 C   0  0  0  0  0  0  0  0  0  0  0  0
    5.4917   -2.0250    0.0000 O   0  0  0  0  0  0  0  0  0  0  0  0
   -0.2000   -2.8667    0.0000 C   0  0  0  0  0  0  0  0  0  0  0  0
    0.5125   -3.2750    0.0000 C   0  0  0  0  0  0  0  0  0  0  0  0
    4.7875   -3.2625    0.0000 O   0  0  0  0  0  0  0  0  0  0  0  0
    1.2250   -2.8625    0.0000 C   0  0  0  0  0  0  0  0  0  0  0  0
    4.0750   -2.8542    0.0000 C   0  0  0  0  0  0  0  0  0  0  0  0
    6.2125   -3.2542    0.0000 C   0  0  0  0  0  0  0  0  0  0  0  0
   -0.2083   -2.0417    0.0000 C   0  0  0  0  0  0  0  0  0  0  0  0
   -0.9125   -3.2792    0.0000 C   0  0  0  0  0  0  0  0  0  0  0  0
    1.9375   -3.2667    0.0000 C   0  0  0  0  0  0  0  0  0  0  0  0
    3.3625   -3.2667    0.0000 C   0  0  0  0  0  0  0  0  0  0  0  0
    2.6500   -2.8542    0.0000 C   0  0  0  0  0  0  0  0  0  0  0  0
    2.6417   -2.0292    0.0000 C   0  0  0  0  0  0  0  0  0  0  0  0
  2  1  2  0
  3  4  2  0
  4  6  1  0
  5  1  1  0
  6 11  1  0
  7  5  1  0
  8  1  1  0
  9  3  1  0
 10  3  1  0
 11 13  1  0
 12  7  1  0
 13 12  1  0
 13 14  1  1
M  END
>  <ID>  (1742) 


>  <MOLENAME>  (1742) 
RHODINYL ACETATE

>  <therap>  (1742) 
nan

>  <ref>  (1742) 
nan

>  <cas#>  (1742) 
nan

>  <source>  (1742) 
common constituent of plant essential oils

>  <status>  (1742) 
undetermined activity

>  <tradename>  (1742) 
nan

>  <SMILES>  (1742) 
CC(=O)OCC[C@H](C)CCC=C(C)C

>  <standardized_failed>  (1742) 
False

$$$$

     RDKit          2D

 29 32  0  0  0  0  0  0  0  0999 V2000
    3.1792    0.0458    0.0000 C   0  0  0  0  0  0  0  0  0  0  0  0
    1.7417   -0.7625    0.0000 C   0  0  0  0  0  0  0  0  0  0  0  0
    3.1667   -0.7792    0.0000 C   0  0  0  0  0  0  0  0  0  0  0  0
    1.0292   -1.1750    0.0000 C   0  0  0  0  0  0  0  0  0  0  0  0
    2.4417   -1.1792    0.0000 C   0  0  0  0  0  0  0  0  0  0  0  0
    2.4667    0.4708    0.0000 C   0  0  0  0  0  0  0  0  0  0  0  0
    1.7500    0.0625    0.0000 C   0  0  0  0  0  0  0  0  0  0  0  0
    3.9625    0.2833    0.0000 C   0  0  0  0  0  0  0  0  0  0  0  0
    1.0250   -2.0000    0.0000 C   0  0  0  0  0  0  0  0  0  0  0  0
    3.9417   -1.0417    0.0000 C   0  0  0  0  0  0  0  0  0  0  0  0
    0.3167   -0.7542    0.0000 C   0  0  0  0  0  0  0  0  0  0  0  0
    4.4375   -0.3875    0.0000 C   0  0  0  0  0  0  0  0  0  0  0  0
    2.4542   -2.0042    0.0000 C   0  0  0  0  0  0  0  0  0  0  0  0
    6.4375    0.3083    0.0000 C   0  0  0  0  0  0  0  0  0  0  0  0
    1.7375   -2.4125    0.0000 C   0  0  0  0  0  0  0  0  0  0  0  0
    0.3167   -2.4042    0.0000 C   0  0  0  0  0  0  0  0  0  0  0  0
    6.8417    1.0250    0.0000 O   0  0  0  0  0  0  0  0  0  0  0  0
    4.3667    1.0000    0.0000 C   0  0  0  0  0  0  0  0  0  0  0  0
    5.1917    1.0083    0.0000 C   0  0  0  0  0  0  0  0  0  0  0  0
    2.4667    1.2958    0.0000 O   0  0  0  0  0  0  0  0  0  0  0  0
    5.6125    0.3000    0.0000 C   0  0  0  0  0  0  0  0  0  0  0  0
    3.1750    0.8708    0.0000 C   0  0  0  0  0  0  0  0  0  0  0  0
   -0.3958   -1.1750    0.0000 C   0  0  0  0  0  0  0  0  0  0  0  0
   -0.3958   -2.0000    0.0000 C   0  0  0  0  0  0  0  0  0  0  0  0
    1.0250   -0.3500    0.0000 C   0  0  0  0  0  0  0  0  0  0  0  0
    6.8542   -0.4042    0.0000 O   0  0  0  0  0  0  0  0  0  0  0  0
   -1.1083   -2.4125    0.0000 O   0  0  0  0  0  0  0  0  0  0  0  0
    3.9500    1.7125    0.0000 C   0  0  0  0  0  0  0  0  0  0  0  0
    6.4500   -1.1167    0.0000 C   0  0  0  0  0  0  0  0  0  0  0  0
  2  7  1  0
  3  1  1  0
  4  2  1  0
  5  3  1  0
  6  1  1  0
  7  6  1  0
  8  1  1  0
  9  4  1  0
 10  3  1  0
 11  4  1  0
 12  8  1  0
 13  5  1  0
 14 21  1  0
 15 13  1  0
  9 16  1  6
 17 14  2  0
 18  8  1  0
 19 18  1  0
  6 20  1  6
 21 19  1  0
  1 22  1  1
 23 11  1  0
 24 23  1  0
  4 25  1  1
 26 14  1  0
 24 27  1  6
 28 18  1  0
 29 26  1  0
 12 10  1  0
  2  5  1  0
 15  9  1  0
 24 16  1  0
M  END
>  <ID>  (1743) 


>  <MOLENAME>  (1743) 
METHYL DEOXYCHOLATE

>  <therap>  (1743) 
nan

>  <ref>  (1743) 
Helv Chim Acta 25:797 (1942); J Biol Chem 238: 3846 (1963)

>  <cas#>  (1743) 
3245-38-3

>  <source>  (1743) 
rabbit bile & feces

>  <status>  (1743) 
undetermined activity

>  <tradename>  (1743) 
nan

>  <SMILES>  (1743) 
COC(=O)CCC(C)C1CCC2C3CC[C@@H]4C[C@H](O)CC[C@]4(C)C3C[C@H](O)[C@]12C

>  <standardized_failed>  (1743) 
False

$$$$

     RDKit          2D

 16 18  0  0  0  0  0  0  0  0999 V2000
    5.6875   -3.8250    0.0000 C   0  0  0  0  0  0  0  0  0  0  0  0
    5.6875   -2.4417    0.0000 C   0  0  0  0  0  0  0  0  0  0  0  0
    4.3875   -4.2417    0.0000 C   0  0  0  0  0  0  0  0  0  0  0  0
    6.0917   -5.1250    0.0000 C   0  0  0  0  0  0  0  0  0  0  0  0
    4.8417   -5.5417    0.0000 C   0  0  0  0  0  0  0  0  0  0  0  0
    6.8750   -4.5042    0.0000 C   0  0  0  0  0  0  0  0  0  0  0  0
    4.4167   -2.0542    0.0000 C   0  0  0  0  0  0  0  0  0  0  0  0
    3.6042   -3.0917    0.0000 C   0  0  0  0  0  0  0  0  0  0  0  0
    6.8750   -1.7625    0.0000 C   0  0  0  0  0  0  0  0  0  0  0  0
    8.0542   -3.8250    0.0000 C   0  0  0  0  0  0  0  0  0  0  0  0
    6.8542   -5.8542    0.0000 O   0  0  0  0  0  0  0  0  0  0  0  0
    8.0542   -2.4417    0.0000 C   0  0  0  0  0  0  0  0  0  0  0  0
    5.6792   -1.0667    0.0000 C   0  0  0  0  0  0  0  0  0  0  0  0
    6.8750   -0.4042    0.0000 O   0  0  0  0  0  0  0  0  0  0  0  0
    5.1667   -6.7875    0.0000 C   0  0  0  0  0  0  0  0  0  0  0  0
    3.4167   -5.9250    0.0000 C   0  0  0  0  0  0  0  0  0  0  0  0
  2  1  1  0
  3  1  1  0
  4  1  1  0
  5  4  1  0
  6  1  1  0
  7  2  1  0
  8  3  1  0
  9  2  1  0
 10  6  1  0
 11  6  2  0
 12 10  1  0
 13  2  1  0
 14  9  1  0
 15  5  1  0
 16  5  1  0
  5  3  1  0
  8  7  1  0
 12  9  1  0
M  END
>  <ID>  (1744) 


>  <MOLENAME>  (1744) 
3-NOR-3-OXOPANASINSAN-6-OL

>  <therap>  (1744) 
nan

>  <ref>  (1744) 
Chem Pharm Bull 35: 1975 (1987)

>  <cas#>  (1744) 
nan

>  <source>  (1744) 
derivative Panax ginseng

>  <status>  (1744) 
undetermined activity

>  <tradename>  (1744) 
nan

>  <SMILES>  (1744) 
CC1(C)CC23C(=O)CCC(O)C2(C)CCC13

>  <standardized_failed>  (1744) 
False

$$$$

     RDKit          2D

 24 27  0  0  0  0  0  0  0  0999 V2000
    2.3292   -1.4667    0.0000 C   0  0  0  0  0  0  0  0  0  0  0  0
    2.7417   -0.7625    0.0000 C   0  0  0  0  0  0  0  0  0  0  0  0
    1.5125   -1.4750    0.0000 C   0  0  0  0  0  0  0  0  0  0  0  0
    3.5542   -0.7625    0.0000 C   0  0  0  0  0  0  0  0  0  0  0  0
    2.3292   -0.0500    0.0000 C   0  0  0  0  0  0  0  0  0  0  0  0
    1.1000   -0.7542    0.0000 C   0  0  0  0  0  0  0  0  0  0  0  0
    3.9667   -1.4667    0.0000 C   0  0  0  0  0  0  0  0  0  0  0  0
    2.7375   -2.1792    0.0000 C   0  0  0  0  0  0  0  0  0  0  0  0
    2.7417    0.6625    0.0000 N   0  0  0  0  0  0  0  0  0  0  0  0
    1.5042   -0.0417    0.0000 C   0  0  0  0  0  0  0  0  0  0  0  0
    3.5542   -2.1792    0.0000 C   0  0  0  0  0  0  0  0  0  0  0  0
    1.1000   -2.1792    0.0000 C   0  0  0  0  0  0  0  0  0  0  0  0
    3.0167   -1.1542    0.0000 C   0  0  0  0  0  0  0  0  0  0  0  0
    3.3917   -0.0000    0.0000 C   0  0  0  0  0  0  0  0  0  0  0  0
    0.2750   -2.1792    0.0000 C   0  0  0  0  0  0  0  0  0  0  0  0
    0.2750   -0.7625    0.0000 C   0  0  0  0  0  0  0  0  0  0  0  0
    3.9667   -2.9000    0.0000 O   0  0  0  0  0  0  0  0  0  0  0  0
   -0.1333   -1.4750    0.0000 C   0  0  0  0  0  0  0  0  0  0  0  0
    4.7917   -1.4667    0.0000 O   0  0  0  0  0  0  0  0  0  0  0  0
    1.5125   -2.9000    0.0000 O   0  0  0  0  0  0  0  0  0  0  0  0
   -0.1333   -2.8917    0.0000 O   0  0  0  0  0  0  0  0  0  0  0  0
    2.7667    1.4875    0.0000 C   0  0  0  0  0  0  0  0  0  0  0  0
    5.2042   -2.1792    0.0000 C   0  0  0  0  0  0  0  0  0  0  0  0
   -0.9583   -2.8917    0.0000 C   0  0  0  0  0  0  0  0  0  0  0  0
  2  1  1  0
  3  1  1  0
  2  4  1  1
  5  2  1  0
  6  3  2  0
  7 11  1  0
  1  8  1  1
  9 14  1  0
 10  6  1  0
 11  8  1  0
 12  3  1  0
  1 13  1  0
 14 13  1  0
 15 12  2  0
 16  6  1  0
 17 11  2  0
 18 15  1  0
 19  7  1  0
 20 12  1  0
 21 15  1  0
 22  9  1  0
 23 19  1  0
 24 21  1  0
  5  9  1  0
  7  4  2  0
  5 10  1  6
 16 18  2  0
M  END
>  <ID>  (1745) 


>  <MOLENAME>  (1745) 
SINOMENINE

>  <therap>  (1745) 
weak abortifacient, immunosuppressant, analgesic, antiinflammatory; LD50 (po) 580 mg/kg; (ip) 285 mg/kg(mouse)

>  <ref>  (1745) 
Annalen 485: 247 (1931); J Chem Soc 1955: 3252; J Immunopharmacol 7: 33 (1985); Arzneim-Forsch 44: 1223 (1994) 

>  <cas#>  (1745) 
115-53-7

>  <source>  (1745) 
Sinomenium acutum and Stephania cepharantha

>  <status>  (1745) 
experimental

>  <tradename>  (1745) 
nan

>  <SMILES>  (1745) 
COC1=C[C@@H]2[C@@H]3Cc4c(c(O)c(OC)cc4)[C@]2(CCN3C)CC1=O

>  <standardized_failed>  (1745) 
False

$$$$

     RDKit          2D

 28 31  0  0  0  0  0  0  0  0999 V2000
    2.1417   -1.0667    0.0000 C   0  0  0  0  0  0  0  0  0  0  0  0
    2.8625    0.1708    0.0000 C   0  0  0  0  0  0  0  0  0  0  0  0
    0.7167   -1.0667    0.0000 C   0  0  0  0  0  0  0  0  0  0  0  0
    2.8625   -0.6542    0.0000 C   0  0  0  0  0  0  0  0  0  0  0  0
    1.4292   -0.6542    0.0000 C   0  0  0  0  0  0  0  0  0  0  0  0
    2.1417   -1.9000    0.0000 C   0  0  0  0  0  0  0  0  0  0  0  0
    3.6417    0.4250    0.0000 C   0  0  0  0  0  0  0  0  0  0  0  0
    0.7167   -1.9000    0.0000 C   0  0  0  0  0  0  0  0  0  0  0  0
    2.1417    0.5833    0.0000 C   0  0  0  0  0  0  0  0  0  0  0  0
    1.4292    0.1708    0.0000 C   0  0  0  0  0  0  0  0  0  0  0  0
    3.6417   -0.9125    0.0000 C   0  0  0  0  0  0  0  0  0  0  0  0
    0.0042   -0.6542    0.0000 C   0  0  0  0  0  0  0  0  0  0  0  0
    4.1292   -0.2417    0.0000 C   0  0  0  0  0  0  0  0  0  0  0  0
    1.4292   -2.3125    0.0000 C   0  0  0  0  0  0  0  0  0  0  0  0
    0.0042   -2.3125    0.0000 C   0  0  0  0  0  0  0  0  0  0  0  0
    3.9000    1.2125    0.0000 C   0  0  0  0  0  0  0  0  0  0  0  0
    2.8625    1.0000    0.0000 C   0  0  0  0  0  0  0  0  0  0  0  0
   -0.7125   -1.0667    0.0000 C   0  0  0  0  0  0  0  0  0  0  0  0
   -0.7125   -1.9000    0.0000 C   0  0  0  0  0  0  0  0  0  0  0  0
    0.6792   -0.0917    0.0000 C   0  0  0  0  0  0  0  0  0  0  0  0
   -1.4333   -2.3167    0.0000 O   0  0  0  0  0  0  0  0  0  0  0  0
    5.2542    0.7833    0.0000 C   0  0  0  0  0  0  0  0  0  0  0  0
    4.7042    1.3875    0.0000 C   0  0  0  0  0  0  0  0  0  0  0  0
    3.3417    1.8250    0.0000 C   0  0  0  0  0  0  0  0  0  0  0  0
    6.0625    0.9583    0.0000 C   0  0  0  0  0  0  0  0  0  0  0  0
    6.6167    0.3458    0.0000 C   0  0  0  0  0  0  0  0  0  0  0  0
    7.4250    0.5208    0.0000 C   0  0  0  0  0  0  0  0  0  0  0  0
    6.3625   -0.4417    0.0000 C   0  0  0  0  0  0  0  0  0  0  0  0
  2  4  1  0
  3  5  1  0
  4  1  1  0
  5  1  1  0
  6  1  2  0
  7  2  1  0
  8 14  1  1
  9 10  1  0
 10  5  1  0
 11  4  1  0
 12  3  1  0
 13 11  1  0
 14  6  1  0
 15  8  1  0
 16  7  1  0
  2 17  1  1
 18 12  1  0
 19 15  1  0
  3 20  1  1
 19 21  1  1
 22 23  1  0
 23 16  1  0
 24 16  1  0
 25 22  1  0
 26 25  1  0
 27 26  1  0
 28 26  1  0
  3  8  1  0
  9  2  1  0
  7 13  1  0
 19 18  1  0
M  END
>  <ID>  (1746) 


>  <MOLENAME>  (1746) 
LATHOSTEROL

>  <therap>  (1746) 
nan

>  <ref>  (1746) 
J Biol Chem 248: 6697 (1973)

>  <cas#>  (1746) 
nan

>  <source>  (1746) 
Austeria rubens

>  <status>  (1746) 
undetermined activity

>  <tradename>  (1746) 
nan

>  <SMILES>  (1746) 
CC(C)CCCC(C)C1CCC2C3=CC[C@H]4C[C@@H](O)CC[C@]4(C)C3CC[C@@]21C

>  <standardized_failed>  (1746) 
False

$$$$

     RDKit          2D

 46 53  0  0  0  0  0  0  0  0999 V2000
    6.0250   -3.3792    0.0000 C   0  0  0  0  0  0  0  0  0  0  0  0
    4.6625   -4.9917    0.0000 C   0  0  0  0  0  0  0  0  0  0  0  0
    6.7125   -3.7792    0.0000 C   0  0  0  0  0  0  0  0  0  0  0  0
    5.3417   -3.7792    0.0000 C   0  0  0  0  0  0  0  0  0  0  0  0
    4.6542   -4.2292    0.0000 C   0  0  0  0  0  0  0  0  0  0  0  0
    8.0917   -3.7792    0.0000 C   0  0  0  0  0  0  0  0  0  0  0  0
    7.4042   -2.5792    0.0000 C   0  0  0  0  0  0  0  0  0  0  0  0
    7.4042   -3.3792    0.0000 C   0  0  0  0  0  0  0  0  0  0  0  0
    3.9542   -3.3792    0.0000 C   0  0  0  0  0  0  0  0  0  0  0  0
    5.5042   -5.0042    0.0000 C   0  0  0  0  0  0  0  0  0  0  0  0
    8.7917   -3.3792    0.0000 C   0  0  0  0  0  0  0  0  0  0  0  0
    6.1542   -5.2042    0.0000 C   0  0  0  0  0  0  0  0  0  0  0  0
    8.0917   -2.1792    0.0000 C   0  0  0  0  0  0  0  0  0  0  0  0
    6.0250   -2.5792    0.0000 C   0  0  0  0  0  0  0  0  0  0  0  0
    4.6625   -3.3792    0.0000 C   0  0  0  0  0  0  0  0  0  0  0  0
    3.9542   -4.5792    0.0000 C   0  0  0  0  0  0  0  0  0  0  0  0
    6.7125   -2.1792    0.0000 C   0  0  0  0  0  0  0  0  0  0  0  0
    8.7917   -2.5792    0.0000 O   0  0  0  0  0  0  0  0  0  0  0  0
    6.2917   -4.6417    0.0000 O   0  0  0  0  0  0  0  0  0  0  0  0
    6.7042   -4.8542    0.0000 O   0  0  0  0  0  0  0  0  0  0  0  0
    5.3417   -4.2292    0.0000 O   0  0  0  0  0  0  0  0  0  0  0  0
    4.2375   -4.2292    0.0000 C   0  0  0  0  0  0  0  0  0  0  0  0
    8.0917   -4.4667    0.0000 C   0  0  0  0  0  0  0  0  0  0  0  0
    8.0875   -1.3542    0.0000 C   0  0  0  0  0  0  0  0  0  0  0  0
    4.6625   -2.5792    0.0000 C   0  0  0  0  0  0  0  0  0  0  0  0
    3.9750   -2.1792    0.0000 C   0  0  0  0  0  0  0  0  0  0  0  0
    9.5042   -3.7792    0.0000 O   0  0  0  0  0  0  0  0  0  0  0  0
    4.4042   -5.6292    0.0000 O   0  0  0  0  0  0  0  0  0  0  0  0
    8.7000   -0.8667    0.0000 C   0  0  0  0  0  0  0  0  0  0  0  0
    7.4167   -0.8542    0.0000 C   0  0  0  0  0  0  0  0  0  0  0  0
    8.4750   -0.1042    0.0000 O   0  0  0  0  0  0  0  0  0  0  0  0
    7.6750   -0.1042    0.0000 C   0  0  0  0  0  0  0  0  0  0  0  0
    5.2542   -5.7292    0.0000 O   0  0  0  0  0  0  0  0  0  0  0  0
    5.3125   -2.2167    0.0000 O   0  0  0  0  0  0  0  0  0  0  0  0
    3.9750   -1.3792    0.0000 O   0  0  0  0  0  0  0  0  0  0  0  0
    7.5750   -4.7417    0.0000 C   0  0  0  0  0  0  0  0  0  0  0  0
    3.3250   -4.9167    0.0000 O   0  0  0  0  0  0  0  0  0  0  0  0
    5.3417   -3.0417    0.0000 C   0  0  0  0  0  0  0  0  0  0  0  0
    6.7125   -1.3792    0.0000 O   0  0  0  0  0  0  0  0  0  0  0  0
    7.4042   -1.7792    0.0000 C   0  0  0  0  0  0  0  0  0  0  0  0
    8.6542   -4.7667    0.0000 O   0  0  0  0  0  0  0  0  0  0  0  0
    3.3417   -3.3792    0.0000 C   0  0  0  0  0  0  0  0  0  0  0  0
    6.1542   -5.7667    0.0000 C   0  0  0  0  0  0  0  0  0  0  0  0
    3.2917   -2.5792    0.0000 O   0  0  0  0  0  0  0  0  0  0  0  0
    7.2417   -4.2917    0.0000 C   0  0  0  0  0  0  0  0  0  0  0  0
    7.5875   -5.4292    0.0000 C   0  0  0  0  0  0  0  0  0  0  0  0
  2  5  1  0
  3  1  1  0
  4  1  1  0
  4  5  1  0
  6  8  1  0
  7 17  1  0
  8  3  1  0
  9 15  1  0
 10  3  1  0
 11  6  1  0
 12 19  1  0
 13  7  1  0
 14  1  1  0
 15  4  1  0
 16  9  1  0
 17 14  1  0
 13 18  1  6
  1 19  1  6
  3 20  1  6
 21 12  1  0
 22  5  1  0
 23  6  2  0
 13 24  1  0
 15 25  1  6
 26 25  1  0
 27 11  2  0
  2 28  1  6
 29 24  2  0
 30 24  1  0
 31 29  1  0
 32 30  2  0
 10 33  1  6
 14 34  1  6
 35 26  2  0
 36 23  1  0
 37 16  1  0
  4 38  1  6
 39 17  1  0
  7 40  1  6
 41 23  1  0
 42  9  1  0
 43 12  1  0
 44 26  1  0
 45 36  1  0
 46 36  1  0
 20 12  1  0
  2 10  1  0
  7  8  1  0
  5 21  1  0
  9 22  1  0
 16  2  1  0
 18 11  1  0
 32 31  1  0
M  END
>  <ID>  (1747) 


>  <MOLENAME>  (1747) 
HYDROLYSIS PRODUCT OF BUSSEIN

>  <therap>  (1747) 
nan

>  <ref>  (1747) 
nan

>  <cas#>  (1747) 
nan

>  <source>  (1747) 
structure tentative

>  <status>  (1747) 
undetermined activity

>  <tradename>  (1747) 
nan

>  <SMILES>  (1747) 
CC(C)/C(O)=C1/C(=O)O[C@@H](c2cocc2)[C@]2(C)C(O)[C@@H](O)[C@@]34OC5(C)OC67CC(C)(C(O)[C@]6(O)[C@@H](O)[C@]3(O5)C12)[C@H](CC(=O)O)[C@]74C

>  <standardized_failed>  (1747) 
False

$$$$

     RDKit          2D

 22 23  0  0  0  0  0  0  0  0999 V2000
    4.6500   -3.5292    0.0000 C   0  0  0  0  0  0  0  0  0  0  0  0
    5.3625   -3.1250    0.0000 C   0  0  0  0  0  0  0  0  0  0  0  0
    4.6500   -4.3375    0.0000 C   0  0  0  0  0  0  0  0  0  0  0  0
    6.0667   -3.5292    0.0000 C   0  0  0  0  0  0  0  0  0  0  0  0
    5.3625   -4.7500    0.0000 C   0  0  0  0  0  0  0  0  0  0  0  0
    6.0667   -4.3375    0.0000 C   0  0  0  0  0  0  0  0  0  0  0  0
    3.9375   -4.7500    0.0000 C   0  0  0  0  0  0  0  0  0  0  0  0
    5.3625   -2.3125    0.0000 C   0  0  0  0  0  0  0  0  0  0  0  0
    6.7750   -3.1250    0.0000 C   0  0  0  0  0  0  0  0  0  0  0  0
    6.7750   -2.3125    0.0000 C   0  0  0  0  0  0  0  0  0  0  0  0
    7.3875   -3.0792    0.0000 C   0  0  0  0  0  0  0  0  0  0  0  0
    3.9375   -3.1250    0.0000 C   0  0  0  0  0  0  0  0  0  0  0  0
    8.2417   -2.7667    0.0000 C   0  0  0  0  0  0  0  0  0  0  0  0
    6.0667   -1.9000    0.0000 C   0  0  0  0  0  0  0  0  0  0  0  0
    5.3625   -5.5625    0.0000 O   0  0  0  0  0  0  0  0  0  0  0  0
    4.6500   -2.6000    0.0000 C   0  0  0  0  0  0  0  0  0  0  0  0
    7.4625   -1.9250    0.0000 O   0  0  0  0  0  0  0  0  0  0  0  0
    3.2250   -4.3375    0.0000 C   0  0  0  0  0  0  0  0  0  0  0  0
    3.2250   -3.5292    0.0000 C   0  0  0  0  0  0  0  0  0  0  0  0
    4.6125   -5.1000    0.0000 C   0  0  0  0  0  0  0  0  0  0  0  0
    3.2875   -5.1167    0.0000 C   0  0  0  0  0  0  0  0  0  0  0  0
    6.7875   -1.4625    0.0000 C   0  0  0  0  0  0  0  0  0  0  0  0
  2  1  1  0
  3  1  1  0
  4  2  1  0
  5  3  1  0
  6  5  1  0
  7  3  1  0
  8  2  1  0
  9  4  2  0
 10 14  1  0
 11 10  1  0
 12  1  1  0
 13 11  2  0
 14  8  1  0
  5 15  1  6
 16  1  1  0
 10 17  1  0
 18 19  1  0
 19 12  1  0
 20  7  1  0
  7 21  1  0
 10 22  1  1
  7 18  1  0
  6  4  1  0
M  END
>  <ID>  (1748) 


>  <MOLENAME>  (1748) 
LARIXOL

>  <therap>  (1748) 
nan

>  <ref>  (1748) 
Tet Letters 1965: 3523; 1967: 219

>  <cas#>  (1748) 
nan

>  <source>  (1748) 
Larix sibiricia

>  <status>  (1748) 
undetermined activity

>  <tradename>  (1748) 
nan

>  <SMILES>  (1748) 
C=C[C@@](C)(O)CCC1C(=C)C[C@H](O)C2C(C)(C)CCCC12C

>  <standardized_failed>  (1748) 
False

$$$$

     RDKit          2D

 27 30  0  0  0  0  0  0  0  0999 V2000
    5.2417   -2.8917    0.0000 C   0  0  0  0  0  0  0  0  0  0  0  0
    5.2417   -3.7167    0.0000 C   0  0  0  0  0  0  0  0  0  0  0  0
    3.8042   -3.7167    0.0000 C   0  0  0  0  0  0  0  0  0  0  0  0
    4.5292   -4.1292    0.0000 C   0  0  0  0  0  0  0  0  0  0  0  0
    3.0917   -4.1292    0.0000 C   0  0  0  0  0  0  0  0  0  0  0  0
    6.0292   -2.6375    0.0000 C   0  0  0  0  0  0  0  0  0  0  0  0
    4.5167   -2.4792    0.0000 C   0  0  0  0  0  0  0  0  0  0  0  0
    3.8042   -2.8917    0.0000 C   0  0  0  0  0  0  0  0  0  0  0  0
    6.0292   -3.9750    0.0000 C   0  0  0  0  0  0  0  0  0  0  0  0
    6.5042   -3.3042    0.0000 C   0  0  0  0  0  0  0  0  0  0  0  0
    4.5292   -4.9625    0.0000 C   0  0  0  0  0  0  0  0  0  0  0  0
    3.0917   -4.9625    0.0000 C   0  0  0  0  0  0  0  0  0  0  0  0
    3.8042   -5.3750    0.0000 C   0  0  0  0  0  0  0  0  0  0  0  0
    6.2792   -1.8500    0.0000 C   0  0  0  0  0  0  0  0  0  0  0  0
    5.2417   -2.0667    0.0000 C   0  0  0  0  0  0  0  0  0  0  0  0
    3.0917   -3.3042    0.0000 C   0  0  0  0  0  0  0  0  0  0  0  0
    2.3792   -3.7167    0.0000 C   0  0  0  0  0  0  0  0  0  0  0  0
    7.6417   -2.2875    0.0000 C   0  0  0  0  0  0  0  0  0  0  0  0
    7.0792   -1.6750    0.0000 C   0  0  0  0  0  0  0  0  0  0  0  0
    2.3792   -5.3750    0.0000 C   0  0  0  0  0  0  0  0  0  0  0  0
    5.7292   -1.2375    0.0000 C   0  0  0  0  0  0  0  0  0  0  0  0
    8.4417   -2.1125    0.0000 C   0  0  0  0  0  0  0  0  0  0  0  0
    8.9917   -2.7250    0.0000 C   0  0  0  0  0  0  0  0  0  0  0  0
    1.6667   -4.1292    0.0000 C   0  0  0  0  0  0  0  0  0  0  0  0
    9.8042   -2.5500    0.0000 C   0  0  0  0  0  0  0  0  0  0  0  0
    8.7417   -3.5042    0.0000 C   0  0  0  0  0  0  0  0  0  0  0  0
    1.6667   -4.9625    0.0000 C   0  0  0  0  0  0  0  0  0  0  0  0
  2  1  1  0
  3  8  1  0
  4  2  1  0
  5  3  1  0
  6  1  1  0
  7  1  1  0
  8  7  1  0
  9  2  1  0
 10  6  1  0
 11  4  1  0
 12  5  1  0
 13 11  1  0
 14  6  1  0
  1 15  1  1
  5 16  1  1
 17  5  1  0
 18 19  1  0
 19 14  1  0
 12 20  1  1
 21 14  1  0
 22 18  1  0
 23 22  1  0
 24 17  1  0
 25 23  1  0
 26 23  1  0
 27 24  1  0
 10  9  1  0
  3  4  1  0
 13 12  1  0
 20 27  1  0
M  END
>  <ID>  (1749) 


>  <MOLENAME>  (1749) 
CHOLESTANE

>  <therap>  (1749) 
nan

>  <ref>  (1749) 
nan

>  <cas#>  (1749) 
481-21-0

>  <source>  (1749) 
semisynthetic

>  <status>  (1749) 
undetermined activity

>  <tradename>  (1749) 
nan

>  <SMILES>  (1749) 
CC(C)CCCC(C)C1CCC2C3CC[C@H]4CCCC[C@]4(C)C3CC[C@]12C

>  <standardized_failed>  (1749) 
False

$$$$

     RDKit          2D

 28 31  0  0  0  0  0  0  0  0999 V2000
    5.0292   -2.6542    0.0000 C   0  0  0  0  0  0  0  0  0  0  0  0
    4.2292   -2.8667    0.0000 C   0  0  0  0  0  0  0  0  0  0  0  0
    3.6500   -2.2875    0.0000 C   0  0  0  0  0  0  0  0  0  0  0  0
    5.4667   -3.3417    0.0000 C   0  0  0  0  0  0  0  0  0  0  0  0
    2.1542   -2.2417    0.0000 C   0  0  0  0  0  0  0  0  0  0  0  0
    3.8667   -1.5000    0.0000 C   0  0  0  0  0  0  0  0  0  0  0  0
    2.0042   -1.4375    0.0000 C   0  0  0  0  0  0  0  0  0  0  0  0
    2.5417   -0.8167    0.0000 C   0  0  0  0  0  0  0  0  0  0  0  0
    3.3792   -0.8417    0.0000 O   0  0  0  0  0  0  0  0  0  0  0  0
    5.2542   -1.8500    0.0000 C   0  0  0  0  0  0  0  0  0  0  0  0
    2.9000   -2.6167    0.0000 O   0  0  0  0  0  0  0  0  0  0  0  0
    4.1875   -3.7042    0.0000 C   0  0  0  0  0  0  0  0  0  0  0  0
    4.9500   -4.0000    0.0000 O   0  0  0  0  0  0  0  0  0  0  0  0
    4.6750   -1.2667    0.0000 C   0  0  0  0  0  0  0  0  0  0  0  0
    1.5375   -2.7750    0.0000 C   0  0  0  0  0  0  0  0  0  0  0  0
    1.2250   -1.1667    0.0000 C   0  0  0  0  0  0  0  0  0  0  0  0
    0.7667   -2.4917    0.0000 C   0  0  0  0  0  0  0  0  0  0  0  0
    0.6042   -1.7042    0.0000 C   0  0  0  0  0  0  0  0  0  0  0  0
    6.2917   -3.4167    0.0000 O   0  0  0  0  0  0  0  0  0  0  0  0
    2.1917   -0.0667    0.0000 O   0  0  0  0  0  0  0  0  0  0  0  0
    1.7042   -3.6042    0.0000 C   0  0  0  0  0  0  0  0  0  0  0  0
    6.0500   -1.6417    0.0000 O   0  0  0  0  0  0  0  0  0  0  0  0
    3.4917   -4.1500    0.0000 O   0  0  0  0  0  0  0  0  0  0  0  0
    1.0625   -4.1292    0.0000 O   0  0  0  0  0  0  0  0  0  0  0  0
    0.1292   -3.0292    0.0000 O   0  0  0  0  0  0  0  0  0  0  0  0
    4.9042   -0.4875    0.0000 C   0  0  0  0  0  0  0  0  0  0  0  0
    1.0625   -0.3417    0.0000 C   0  0  0  0  0  0  0  0  0  0  0  0
    0.2750   -3.8542    0.0000 C   0  0  0  0  0  0  0  0  0  0  0  0
  2  1  2  0
  3  2  1  0
  4  1  1  0
  5 11  1  0
  6 14  1  0
  7  5  2  0
  8  9  1  0
  9  6  1  0
 10  1  1  0
 11  3  1  0
 12  2  1  0
 13  4  1  0
 14 10  2  0
 15  5  1  0
 16  7  1  0
 17 15  2  0
 18 17  1  0
 19  4  2  0
 20  8  2  0
 21 15  1  0
 22 10  1  0
 23 12  1  0
 24 21  2  0
 25 17  1  0
 26 14  1  0
 27 16  1  0
 28 25  1  0
 13 12  1  0
  6  3  2  0
  8  7  1  0
 16 18  2  0
M  END
>  <ID>  (1750) 


>  <MOLENAME>  (1750) 
STICTIC ACID

>  <therap>  (1750) 
nan

>  <ref>  (1750) 
Ber 66, 943 (1933); Tetrahedron 24, 2707 (1966)

>  <cas#>  (1750) 
549-06-4

>  <source>  (1750) 
numerous lichens, e.g. Parmelia sp.

>  <status>  (1750) 
undetermined activity

>  <tradename>  (1750) 
nan

>  <SMILES>  (1750) 
COc1c(C=O)c2c(C(=O)Oc3c(O2)c2c(C(=O)OC2O)c(O)c3C)c(C)c1

>  <standardized_failed>  (1750) 
False

$$$$

     RDKit          2D

 22 24  0  0  0  0  0  0  0  0999 V2000
    3.0750   -2.8875    0.0000 C   0  0  0  0  0  0  0  0  0  0  0  0
    3.7917   -3.3000    0.0000 C   0  0  0  0  0  0  0  0  0  0  0  0
    4.5042   -2.8792    0.0000 C   0  0  0  0  0  0  0  0  0  0  0  0
    2.3542   -3.3042    0.0000 C   0  0  0  0  0  0  0  0  0  0  0  0
    3.0750   -2.0625    0.0000 C   0  0  0  0  0  0  0  0  0  0  0  0
    1.6417   -2.8917    0.0000 C   0  0  0  0  0  0  0  0  0  0  0  0
    4.5000   -2.0542    0.0000 C   0  0  0  0  0  0  0  0  0  0  0  0
    3.7792   -1.6417    0.0000 O   0  0  0  0  0  0  0  0  0  0  0  0
    2.3542   -1.6500    0.0000 C   0  0  0  0  0  0  0  0  0  0  0  0
    1.6417   -2.0625    0.0000 C   0  0  0  0  0  0  0  0  0  0  0  0
    3.7917   -4.1250    0.0000 O   0  0  0  0  0  0  0  0  0  0  0  0
    5.2167   -3.2875    0.0000 C   0  0  0  0  0  0  0  0  0  0  0  0
    2.3542   -4.1292    0.0000 O   0  0  0  0  0  0  0  0  0  0  0  0
    0.9292   -1.6500    0.0000 O   0  0  0  0  0  0  0  0  0  0  0  0
    0.9292   -3.3042    0.0000 C   0  0  0  0  0  0  0  0  0  0  0  0
    5.2167   -4.1167    0.0000 C   0  0  0  0  0  0  0  0  0  0  0  0
    5.9250   -2.8750    0.0000 C   0  0  0  0  0  0  0  0  0  0  0  0
    3.0625   -4.5417    0.0000 C   0  0  0  0  0  0  0  0  0  0  0  0
    0.9292   -0.8250    0.0000 C   0  0  0  0  0  0  0  0  0  0  0  0
    6.6417   -3.2792    0.0000 C   0  0  0  0  0  0  0  0  0  0  0  0
    5.9292   -4.5250    0.0000 C   0  0  0  0  0  0  0  0  0  0  0  0
    6.6500   -4.1042    0.0000 C   0  0  0  0  0  0  0  0  0  0  0  0
  2  1  1  0
  3  2  1  0
  4  1  2  0
  5  1  1  0
  6  4  1  0
  7  8  1  0
  8  5  1  0
  9  5  2  0
 10  9  1  0
 11  2  2  0
 12  3  1  0
 13  4  1  0
 14 10  1  0
 15  6  1  0
 16 12  2  0
 17 12  1  0
 18 13  1  0
 19 14  1  0
 20 17  2  0
 21 16  1  0
 22 20  1  0
  6 10  2  0
  3  7  2  0
 21 22  2  0
M  END
>  <ID>  (1751) 


>  <MOLENAME>  (1751) 
4.6-DIMETHOXY-5-METHYLISOFLAVONE

>  <therap>  (1751) 
nan

>  <ref>  (1751) 
nan

>  <cas#>  (1751) 
nan

>  <source>  (1751) 
analog

>  <status>  (1751) 
undetermined activity

>  <tradename>  (1751) 
nan

>  <SMILES>  (1751) 
COc1c(C)c(OC)c2c(=O)c(-c3ccccc3)coc2c1

>  <standardized_failed>  (1751) 
False

$$$$

     RDKit          2D

 12 12  0  0  0  0  0  0  0  0999 V2000
    4.5500   -3.5917    0.0000 C   0  0  0  0  0  0  0  0  0  0  0  0
    4.5500   -4.4167    0.0000 C   0  0  0  0  0  0  0  0  0  0  0  0
    5.9667   -4.4167    0.0000 C   0  0  0  0  0  0  0  0  0  0  0  0
    5.9667   -3.5917    0.0000 C   0  0  0  0  0  0  0  0  0  0  0  0
    5.2542   -4.8250    0.0000 C   0  0  0  0  0  0  0  0  0  0  0  0
    5.2542   -3.1750    0.0000 C   0  0  0  0  0  0  0  0  0  0  0  0
    5.2542   -2.3500    0.0000 O   0  0  0  0  0  0  0  0  0  0  0  0
    5.2542   -5.6500    0.0000 O   0  0  0  0  0  0  0  0  0  0  0  0
    3.8292   -3.1792    0.0000 Cl  0  0  0  0  0  0  0  0  0  0  0  0
    3.8292   -4.8292    0.0000 Cl  0  0  0  0  0  0  0  0  0  0  0  0
    6.6875   -3.1792    0.0000 Cl  0  0  0  0  0  0  0  0  0  0  0  0
    6.6875   -4.8292    0.0000 Cl  0  0  0  0  0  0  0  0  0  0  0  0
  2  1  2  0
  3  4  2  0
  4  6  1  0
  5  2  1  0
  6  1  1  0
  7  6  2  0
  8  5  2  0
  9  1  1  0
 10  2  1  0
 11  4  1  0
 12  3  1  0
  3  5  1  0
M  END
>  <ID>  (1752) 


>  <MOLENAME>  (1752) 
CHLORANIL

>  <therap>  (1752) 
antipsoriatic

>  <ref>  (1752) 
nan

>  <cas#>  (1752) 
118-75-2

>  <source>  (1752) 
synthetic

>  <status>  (1752) 
experimental

>  <tradename>  (1752) 
nan

>  <SMILES>  (1752) 
O=C1C(Cl)=C(Cl)C(=O)C(Cl)=C1Cl

>  <standardized_failed>  (1752) 
False

$$$$

     RDKit          2D

 20 21  0  0  0  0  0  0  0  0999 V2000
    3.4417   -2.1792    0.0000 C   0  0  0  0  0  0  0  0  0  0  0  0
    4.1625   -1.7667    0.0000 C   0  0  0  0  0  0  0  0  0  0  0  0
    4.8792   -2.1792    0.0000 C   0  0  0  0  0  0  0  0  0  0  0  0
    3.4500   -3.0042    0.0000 O   0  0  0  0  0  0  0  0  0  0  0  0
    4.8792   -3.0042    0.0000 C   0  0  0  0  0  0  0  0  0  0  0  0
    4.1625   -3.4167    0.0000 C   0  0  0  0  0  0  0  0  0  0  0  0
    2.7375   -1.7667    0.0000 O   0  0  0  0  0  0  0  0  0  0  0  0
    2.0167   -1.3542    0.0000 C   0  0  0  0  0  0  0  0  0  0  0  0
    2.0167   -0.5292    0.0000 C   0  0  0  0  0  0  0  0  0  0  0  0
    4.1625   -0.9417    0.0000 O   0  0  0  0  0  0  0  0  0  0  0  0
    5.5917   -1.7667    0.0000 O   0  0  0  0  0  0  0  0  0  0  0  0
    2.7292   -0.1125    0.0000 C   0  0  0  0  0  0  0  0  0  0  0  0
    2.7292    0.7125    0.0000 O   0  0  0  0  0  0  0  0  0  0  0  0
    5.5917   -3.4167    0.0000 O   0  0  0  0  0  0  0  0  0  0  0  0
    4.1625   -4.2417    0.0000 C   0  0  0  0  0  0  0  0  0  0  0  0
    4.9375   -4.5167    0.0000 O   0  0  0  0  0  0  0  0  0  0  0  0
    1.3042   -0.1167    0.0000 C   0  0  0  0  0  0  0  0  0  0  0  0
    1.3042   -1.7667    0.0000 C   0  0  0  0  0  0  0  0  0  0  0  0
    0.5917   -0.5292    0.0000 C   0  0  0  0  0  0  0  0  0  0  0  0
    0.5917   -1.3542    0.0000 C   0  0  0  0  0  0  0  0  0  0  0  0
  2  1  1  0
  3  2  1  0
  4  1  1  0
  5  6  1  0
  6  4  1  0
  1  7  1  1
  8  7  1  0
  9  8  2  0
  2 10  1  6
  3 11  1  6
 12  9  1  0
 13 12  2  0
  5 14  1  1
  6 15  1  1
 16 15  1  0
 17  9  1  0
 18  8  1  0
 19 20  1  0
 20 18  2  0
  3  5  1  0
 17 19  2  0
M  END
>  <ID>  (1753) 


>  <MOLENAME>  (1753) 
HELICIN

>  <therap>  (1753) 
nan

>  <ref>  (1753) 
J Chem Soc 1930:2729; Bull Chem Soc Japan 44:526 (1971)

>  <cas#>  (1753) 
618-65-5

>  <source>  (1753) 
Spiraea spp

>  <status>  (1753) 
undetermined activity

>  <tradename>  (1753) 
nan

>  <SMILES>  (1753) 
O=Cc1c(O[C@@H]2O[C@H](CO)[C@H](O)[C@@H](O)[C@H]2O)cccc1

>  <standardized_failed>  (1753) 
False

$$$$

     RDKit          2D

 12 12  0  0  0  0  0  0  0  0999 V2000
    5.5417   -1.6792    0.0000 C   0  0  0  0  0  0  0  0  0  0  0  0
    5.5417   -2.5125    0.0000 C   0  0  0  0  0  0  0  0  0  0  0  0
    4.8250   -1.2667    0.0000 C   0  0  0  0  0  0  0  0  0  0  0  0
    6.2542   -1.2667    0.0000 C   0  0  0  0  0  0  0  0  0  0  0  0
    4.8250   -2.9250    0.0000 C   0  0  0  0  0  0  0  0  0  0  0  0
    4.1125   -1.6875    0.0000 C   0  0  0  0  0  0  0  0  0  0  0  0
    4.1125   -2.5125    0.0000 C   0  0  0  0  0  0  0  0  0  0  0  0
    6.2500   -0.4417    0.0000 O   0  0  0  0  0  0  0  0  0  0  0  0
    6.2542   -2.9250    0.0000 O   0  0  0  0  0  0  0  0  0  0  0  0
    6.9667   -1.6750    0.0000 O   0  0  0  0  0  0  0  0  0  0  0  0
    3.3917   -2.9250    0.0000 O   0  0  0  0  0  0  0  0  0  0  0  0
    4.8167   -0.4417    0.0000 C   0  0  0  0  0  0  0  0  0  0  0  0
  2  1  2  0
  3  1  1  0
  4  1  1  0
  5  2  1  0
  6  3  2  0
  7  6  1  0
  8  4  2  0
  9  2  1  0
 10  4  1  0
 11  7  1  0
 12  3  1  0
  7  5  2  0
M  END
>  <ID>  (1754) 


>  <MOLENAME>  (1754) 
ORSELLINIC ACID

>  <therap>  (1754) 
nan

>  <ref>  (1754) 
nan

>  <cas#>  (1754) 
480-64-8

>  <source>  (1754) 
common lichen constituent

>  <status>  (1754) 
undetermined activity

>  <tradename>  (1754) 
nan

>  <SMILES>  (1754) 
Cc1cc(O)cc(O)c1C(=O)O

>  <standardized_failed>  (1754) 
False

$$$$

     RDKit          2D

 25 29  0  0  0  0  0  0  0  0999 V2000
    5.3917   -2.2167    0.0000 C   0  0  0  0  0  0  0  0  0  0  0  0
    5.3917   -1.3917    0.0000 C   0  0  0  0  0  0  0  0  0  0  0  0
    6.1125   -2.6292    0.0000 C   0  0  0  0  0  0  0  0  0  0  0  0
    4.6792   -2.6292    0.0000 C   0  0  0  0  0  0  0  0  0  0  0  0
    6.1125   -0.9792    0.0000 O   0  0  0  0  0  0  0  0  0  0  0  0
    6.8250   -1.3917    0.0000 C   0  0  0  0  0  0  0  0  0  0  0  0
    6.8250   -2.2167    0.0000 C   0  0  0  0  0  0  0  0  0  0  0  0
    3.9625   -2.2167    0.0000 C   0  0  0  0  0  0  0  0  0  0  0  0
    4.6792   -3.4625    0.0000 C   0  0  0  0  0  0  0  0  0  0  0  0
    7.5375   -0.9792    0.0000 C   0  0  0  0  0  0  0  0  0  0  0  0
    3.2417   -2.6292    0.0000 C   0  0  0  0  0  0  0  0  0  0  0  0
    3.9667   -3.8750    0.0000 C   0  0  0  0  0  0  0  0  0  0  0  0
    3.2417   -3.4625    0.0000 C   0  0  0  0  0  0  0  0  0  0  0  0
    8.2542   -1.3917    0.0000 C   0  0  0  0  0  0  0  0  0  0  0  0
    8.2542   -2.2167    0.0000 C   0  0  0  0  0  0  0  0  0  0  0  0
    7.5375   -2.6292    0.0000 C   0  0  0  0  0  0  0  0  0  0  0  0
    9.0375   -1.1417    0.0000 O   0  0  0  0  0  0  0  0  0  0  0  0
    3.7917   -4.6792    0.0000 O   0  0  0  0  0  0  0  0  0  0  0  0
    2.6292   -4.0167    0.0000 O   0  0  0  0  0  0  0  0  0  0  0  0
    9.5167   -1.8125    0.0000 C   0  0  0  0  0  0  0  0  0  0  0  0
    4.7667   -1.0625    0.0000 O   0  0  0  0  0  0  0  0  0  0  0  0
    2.9792   -4.7667    0.0000 C   0  0  0  0  0  0  0  0  0  0  0  0
    9.0375   -2.4750    0.0000 C   0  0  0  0  0  0  0  0  0  0  0  0
    3.9625   -1.3917    0.0000 O   0  0  0  0  0  0  0  0  0  0  0  0
    3.0792   -0.9667    0.0000 C   0  0  0  0  0  0  0  0  0  0  0  0
  2  1  1  0
  3  1  2  0
  4  1  1  0
  5  2  1  0
  6  7  2  0
  7  3  1  0
  8  4  2  0
  9  4  1  0
 10  6  1  0
 11  8  1  0
 12  9  2  0
 13 12  1  0
 14 15  1  0
 15 16  2  0
 16  7  1  0
 17 14  1  0
 18 12  1  0
 19 13  1  0
 20 23  2  0
 21  2  2  0
 22 18  1  0
 23 15  1  0
 24  8  1  0
 25 24  1  0
  5  6  1  0
 13 11  2  0
 22 19  1  0
 14 10  2  0
 17 20  1  0
M  END
>  <ID>  (1755) 


>  <MOLENAME>  (1755) 
PACHYRRHIZIN

>  <therap>  (1755) 
insecticide

>  <ref>  (1755) 
J Am Chem Soc 67: 1609 (1945)

>  <cas#>  (1755) 
10091-01-7

>  <source>  (1755) 
Pachyrrhizus erosus; mp 206-207 C

>  <status>  (1755) 
experimental

>  <tradename>  (1755) 
nan

>  <SMILES>  (1755) 
COc1c(-c2cc3c(cc4occc4c3)oc2=O)cc2OCOc2c1

>  <standardized_failed>  (1755) 
False

$$$$

     RDKit          2D

 15 14  0  0  0  0  0  0  0  0999 V2000
    6.2792   -1.8625    0.0000 C   0  0  0  0  0  0  0  0  0  0  0  0
    0.5667   -1.8625    0.0000 C   0  0  0  0  0  0  0  0  0  0  0  0
    1.2875   -2.2750    0.0000 C   0  0  0  0  0  0  0  0  0  0  0  0
    5.5667   -2.2750    0.0000 C   0  0  0  0  0  0  0  0  0  0  0  0
    6.2792   -1.0375    0.0000 O   0  0  0  0  0  0  0  0  0  0  0  0
    0.5667   -1.0375    0.0000 O   0  0  0  0  0  0  0  0  0  0  0  0
    1.2875   -3.1000    0.0000 N   0  0  0  0  0  0  0  0  0  0  0  0
    5.5667   -3.1000    0.0000 N   0  0  0  0  0  0  0  0  0  0  0  0
    3.4292   -1.8625    0.0000 C   0  0  0  0  0  0  0  0  0  0  0  0
    6.9917   -2.2750    0.0000 O   0  0  0  0  0  0  0  0  0  0  0  0
   -0.1458   -2.2750    0.0000 O   0  0  0  0  0  0  0  0  0  0  0  0
    2.7167   -2.2750    0.0000 S   0  0  0  0  0  0  0  0  0  0  0  0
    4.1417   -2.2750    0.0000 S   0  0  0  0  0  0  0  0  0  0  0  0
    2.0000   -1.8625    0.0000 C   0  0  0  0  0  0  0  0  0  0  0  0
    4.8542   -1.8625    0.0000 C   0  0  0  0  0  0  0  0  0  0  0  0
  2  3  1  0
  3 14  1  0
  4  1  1  0
  5  1  2  0
  6  2  2  0
  7  3  1  0
  8  4  1  0
  9 13  1  0
 10  1  1  0
 11  2  1  0
 12  9  1  0
 13 15  1  0
 14 12  1  0
 15  4  1  0
M  END
>  <ID>  (1756) 


>  <MOLENAME>  (1756) 
DJENKOLIC ACID

>  <therap>  (1756) 
nan

>  <ref>  (1756) 
J Biol Chem 168: 373 (1947)

>  <cas#>  (1756) 
498-59-9

>  <source>  (1756) 
djenkol bean (Pithecolobium lobatum)

>  <status>  (1756) 
undetermined activity

>  <tradename>  (1756) 
nan

>  <SMILES>  (1756) 
NC(CSCSCC(N)C(=O)O)C(=O)O

>  <standardized_failed>  (1756) 
False

$$$$

     RDKit          2D

 21 24  0  0  0  0  0  0  0  0999 V2000
    0.6042   -2.9625    0.0000 C   0  0  0  0  0  0  0  0  0  0  0  0
    2.7542   -1.7417    0.0000 C   0  0  0  0  0  0  0  0  0  0  0  0
    1.3167   -2.5500    0.0000 C   0  0  0  0  0  0  0  0  0  0  0  0
    2.7500   -2.5667    0.0000 C   0  0  0  0  0  0  0  0  0  0  0  0
    2.0292   -2.9667    0.0000 C   0  0  0  0  0  0  0  0  0  0  0  0
    0.6042   -3.7875    0.0000 C   0  0  0  0  0  0  0  0  0  0  0  0
    3.5417   -1.4917    0.0000 C   0  0  0  0  0  0  0  0  0  0  0  0
    2.0500   -1.3167    0.0000 C   0  0  0  0  0  0  0  0  0  0  0  0
    1.3250   -1.7250    0.0000 C   0  0  0  0  0  0  0  0  0  0  0  0
   -0.1083   -2.5417    0.0000 C   0  0  0  0  0  0  0  0  0  0  0  0
    3.5292   -2.8250    0.0000 C   0  0  0  0  0  0  0  0  0  0  0  0
    2.0292   -3.7917    0.0000 C   0  0  0  0  0  0  0  0  0  0  0  0
    1.3167   -4.1917    0.0000 C   0  0  0  0  0  0  0  0  0  0  0  0
    4.0167   -2.1667    0.0000 C   0  0  0  0  0  0  0  0  0  0  0  0
   -0.1083   -4.1917    0.0000 C   0  0  0  0  0  0  0  0  0  0  0  0
    3.8042   -0.7167    0.0000 O   0  0  0  0  0  0  0  0  0  0  0  0
   -0.8125   -2.9625    0.0000 C   0  0  0  0  0  0  0  0  0  0  0  0
   -0.8125   -3.7875    0.0000 C   0  0  0  0  0  0  0  0  0  0  0  0
    0.6042   -2.1375    0.0000 C   0  0  0  0  0  0  0  0  0  0  0  0
    2.7542   -0.9167    0.0000 C   0  0  0  0  0  0  0  0  0  0  0  0
   -1.5333   -4.1917    0.0000 O   0  0  0  0  0  0  0  0  0  0  0  0
  2  8  1  0
  3  1  1  0
  4  5  1  0
  5  3  1  0
  6  1  1  0
  7  2  1  0
  8  9  1  0
  9  3  1  0
 10  1  1  0
 11  4  1  0
 12 13  1  0
  6 13  1  1
 14 11  1  0
 15  6  1  0
 16  7  2  0
 17 10  1  0
 18 17  1  0
  1 19  1  1
  2 20  1  1
 18 21  1  1
 18 15  1  0
  5 12  1  0
  4  2  1  0
 14  7  1  0
M  END
>  <ID>  (1757) 


>  <MOLENAME>  (1757) 
EPIANDROSTERONE

>  <therap>  (1757) 
nan

>  <ref>  (1757) 
J Am Chem Soc 75: 2275 (9153)

>  <cas#>  (1757) 
nan

>  <source>  (1757) 
in normal human urine

>  <status>  (1757) 
undetermined activity

>  <tradename>  (1757) 
nan

>  <SMILES>  (1757) 
C[C@]12CCC3C(CC[C@H]4C[C@@H](O)CC[C@]34C)C1CCC2=O

>  <standardized_failed>  (1757) 
False

$$$$

     RDKit          2D

 25 28  0  0  0  0  0  0  0  0999 V2000
    7.9792   -2.8042    0.0000 C   0  0  0  0  0  0  0  0  0  0  0  0
    5.8125   -4.0542    0.0000 C   0  0  0  0  0  0  0  0  0  0  0  0
    5.8125   -4.8875    0.0000 C   0  0  0  0  0  0  0  0  0  0  0  0
    7.9792   -3.6292    0.0000 C   0  0  0  0  0  0  0  0  0  0  0  0
    6.5417   -3.6292    0.0000 C   0  0  0  0  0  0  0  0  0  0  0  0
    7.2625   -4.0542    0.0000 C   0  0  0  0  0  0  0  0  0  0  0  0
    8.7792   -2.5292    0.0000 C   0  0  0  0  0  0  0  0  0  0  0  0
    6.5417   -5.3167    0.0000 C   0  0  0  0  0  0  0  0  0  0  0  0
    7.2625   -2.3667    0.0000 C   0  0  0  0  0  0  0  0  0  0  0  0
    8.9917   -1.7292    0.0000 C   0  0  0  0  0  0  0  0  0  0  0  0
    9.7542   -1.4167    0.0000 C   0  0  0  0  0  0  0  0  0  0  0  0
    7.2625   -4.8875    0.0000 C   0  0  0  0  0  0  0  0  0  0  0  0
    6.5417   -2.8042    0.0000 C   0  0  0  0  0  0  0  0  0  0  0  0
    8.7792   -3.8792    0.0000 C   0  0  0  0  0  0  0  0  0  0  0  0
    9.2625   -3.2292    0.0000 C   0  0  0  0  0  0  0  0  0  0  0  0
    5.0792   -3.6292    0.0000 C   0  0  0  0  0  0  0  0  0  0  0  0
    5.0792   -5.3167    0.0000 C   0  0  0  0  0  0  0  0  0  0  0  0
    9.7625   -0.6542    0.0000 O   0  0  0  0  0  0  0  0  0  0  0  0
   10.6667   -1.7417    0.0000 O   0  0  0  0  0  0  0  0  0  0  0  0
    7.9792   -2.0000    0.0000 C   0  0  0  0  0  0  0  0  0  0  0  0
    4.3625   -4.0542    0.0000 C   0  0  0  0  0  0  0  0  0  0  0  0
    4.3542   -4.8792    0.0000 C   0  0  0  0  0  0  0  0  0  0  0  0
    5.8125   -3.2292    0.0000 C   0  0  0  0  0  0  0  0  0  0  0  0
    3.6417   -5.2917    0.0000 O   0  0  0  0  0  0  0  0  0  0  0  0
    8.2792   -1.3167    0.0000 C   0  0  0  0  0  0  0  0  0  0  0  0
  2  5  1  0
  3  2  1  0
  4  1  1  0
  5 13  1  0
  6  4  1  0
  7  1  1  0
  8 12  1  0
  9  1  1  0
  7 10  1  1
 11 10  1  0
 12  6  1  0
 13  9  1  0
 14  4  1  0
 15  7  1  0
 16  2  1  0
 17  3  1  0
 18 11  2  0
 19 11  1  0
  1 20  1  1
 21 16  1  0
 22 21  1  0
  2 23  1  1
 22 24  1  1
 25 10  1  0
 15 14  1  0
  6  5  1  0
  3  8  2  0
 17 22  1  0
M  END
>  <ID>  (1758) 


>  <MOLENAME>  (1758) 
3beta-HYDROXY-23.24-BISNORCHOL-5-ENIC ACID

>  <therap>  (1758) 
nan

>  <ref>  (1758) 
nan

>  <cas#>  (1758) 
nan

>  <source>  (1758) 
semisynthetic

>  <status>  (1758) 
undetermined activity

>  <tradename>  (1758) 
nan

>  <SMILES>  (1758) 
CC(C(=O)O)[C@H]1CCC2C3CC=C4C[C@@H](O)CC[C@]4(C)C3CC[C@@]21C

>  <standardized_failed>  (1758) 
False

$$$$

     RDKit          2D

 14 14  0  0  0  0  0  0  0  0999 V2000
    3.8792   -1.8792    0.0000 N   0  0  0  0  0  0  0  0  0  0  0  0
    3.7792   -0.5542    0.0000 C   0  0  0  0  0  0  0  0  0  0  0  0
    4.6417   -1.5542    0.0000 C   0  0  0  0  0  0  0  0  0  0  0  0
    4.5792   -0.7417    0.0000 C   0  0  0  0  0  0  0  0  0  0  0  0
    3.3625   -1.2750    0.0000 C   0  0  0  0  0  0  0  0  0  0  0  0
    3.3750    0.1708    0.0000 C   0  0  0  0  0  0  0  0  0  0  0  0
    2.5292   -1.2667    0.0000 C   0  0  0  0  0  0  0  0  0  0  0  0
    2.5417    0.1833    0.0000 C   0  0  0  0  0  0  0  0  0  0  0  0
    2.1167   -0.5375    0.0000 C   0  0  0  0  0  0  0  0  0  0  0  0
    7.9167   -1.1792    0.0000 Cl  0  0  0  0  0  0  0  0  0  0  0  0
    6.7250   -0.2125    0.0000 N   0  0  0  0  0  0  0  0  0  0  0  0
    2.1292    0.9000    0.0000 O   0  0  0  0  0  0  0  0  0  0  0  0
    5.2000   -0.2042    0.0000 C   0  0  0  0  0  0  0  0  0  0  0  0
    5.9167   -0.6167    0.0000 C   0  0  0  0  0  0  0  0  0  0  0  0
  2  5  2  0
  3  1  1  0
  4  3  2  0
  5  1  1  0
  6  2  1  0
  7  5  1  0
  8  9  1  0
  9  7  2  0
 11 14  1  0
 12  8  1  0
 13  4  1  0
 14 13  1  0
  4  2  1  0
  8  6  2  0
M  END
>  <ID>  (1759) 


>  <MOLENAME>  (1759) 
SEROTONIN HYDROCHLORIDE

>  <therap>  (1759) 
neurotransmitter

>  <ref>  (1759) 
Agents Actions 15:627 (1984)

>  <cas#>  (1759) 
50-67-9

>  <source>  (1759) 
CNS, GI tract, all animals, many mushrooms & plants

>  <status>  (1759) 
experimental

>  <tradename>  (1759) 
nan

>  <SMILES>  (1759) 
NCCc1c[nH]c2c1cc(O)cc2

>  <standardized_failed>  (1759) 
False

$$$$

     RDKit          2D

 11 11  0  0  0  0  0  0  0  0999 V2000
    3.2375   -3.8792    0.0000 C   0  0  0  0  0  0  0  0  0  0  0  0
    3.9500   -3.4667    0.0000 O   0  0  0  0  0  0  0  0  0  0  0  0
    2.5167   -3.4667    0.0000 O   0  0  0  0  0  0  0  0  0  0  0  0
    3.9500   -2.6417    0.0000 C   0  0  0  0  0  0  0  0  0  0  0  0
    3.9500   -0.9917    0.0000 C   0  0  0  0  0  0  0  0  0  0  0  0
    3.2375   -2.2292    0.0000 C   0  0  0  0  0  0  0  0  0  0  0  0
    4.6667   -2.2292    0.0000 C   0  0  0  0  0  0  0  0  0  0  0  0
    3.2375   -1.4042    0.0000 C   0  0  0  0  0  0  0  0  0  0  0  0
    4.6667   -1.4042    0.0000 C   0  0  0  0  0  0  0  0  0  0  0  0
    3.9417   -0.1667    0.0000 O   0  0  0  0  0  0  0  0  0  0  0  0
    3.2375   -4.7042    0.0000 C   0  0  0  0  0  0  0  0  0  0  0  0
  2  1  1  0
  3  1  2  0
  4  2  1  0
  5  9  1  0
  6  4  2  0
  7  4  1  0
  8  6  1  0
  9  7  2  0
 10  5  1  0
 11  1  1  0
  5  8  2  0
M  END
>  <ID>  (1760) 


>  <MOLENAME>  (1760) 
4-ACETOXYPHENOL

>  <therap>  (1760) 
antioxidant 

>  <ref>  (1760) 
nan

>  <cas#>  (1760) 
3233-32-7

>  <source>  (1760) 
Ferulago aucheri, Salvia yosgadensis

>  <status>  (1760) 
experimental

>  <tradename>  (1760) 
nan

>  <SMILES>  (1760) 
CC(=O)Oc1ccc(O)cc1

>  <standardized_failed>  (1760) 
False

$$$$

     RDKit          2D

 14 14  0  0  0  0  0  0  0  0999 V2000
    4.2000   -3.6125    0.0000 C   0  0  0  0  0  0  0  0  0  0  0  0
    4.2000   -1.9542    0.0000 C   0  0  0  0  0  0  0  0  0  0  0  0
    4.9167   -3.2000    0.0000 C   0  0  0  0  0  0  0  0  0  0  0  0
    3.4875   -3.2000    0.0000 C   0  0  0  0  0  0  0  0  0  0  0  0
    4.1917   -1.1292    0.0000 C   0  0  0  0  0  0  0  0  0  0  0  0
    3.4875   -2.3750    0.0000 C   0  0  0  0  0  0  0  0  0  0  0  0
    4.9167   -2.3667    0.0000 C   0  0  0  0  0  0  0  0  0  0  0  0
    3.4792   -0.7250    0.0000 O   0  0  0  0  0  0  0  0  0  0  0  0
    4.2000   -4.4375    0.0000 O   0  0  0  0  0  0  0  0  0  0  0  0
    4.9125   -0.7167    0.0000 O   0  0  0  0  0  0  0  0  0  0  0  0
    2.7667   -3.6125    0.0000 O   0  0  0  0  0  0  0  0  0  0  0  0
    5.6292   -3.6125    0.0000 O   0  0  0  0  0  0  0  0  0  0  0  0
    2.0542   -3.2000    0.0000 C   0  0  0  0  0  0  0  0  0  0  0  0
    5.6292   -4.4375    0.0000 C   0  0  0  0  0  0  0  0  0  0  0  0
  2  6  1  0
  3  1  2  0
  4  1  1  0
  5  2  1  0
  6  4  2  0
  7  3  1  0
  8  5  2  0
  9  1  1  0
 10  5  1  0
 11  4  1  0
 12  3  1  0
 13 11  1  0
 14 12  1  0
  7  2  2  0
M  END
>  <ID>  (1761) 


>  <MOLENAME>  (1761) 
SYRINGIC ACID

>  <therap>  (1761) 
nan

>  <ref>  (1761) 
nan

>  <cas#>  (1761) 
530-57-4

>  <source>  (1761) 
Glycine max; widespread in plants

>  <status>  (1761) 
undetermined activity

>  <tradename>  (1761) 
nan

>  <SMILES>  (1761) 
COc1cc(C(=O)O)cc(OC)c1O

>  <standardized_failed>  (1761) 
False

$$$$

     RDKit          2D

 18 20  0  0  0  0  0  0  0  0999 V2000
   -1.1000    2.0000    0.0000 C   0  0  0  0  0  0  0  0  0  0  0  0
   -0.1208    2.6000    0.0000 O   0  0  0  0  0  0  0  0  0  0  0  0
   -0.1208    1.4333    0.0000 C   0  0  0  0  0  0  0  0  0  0  0  0
    0.8542   -0.2792    0.0000 C   0  0  0  0  0  0  0  0  0  0  0  0
   -1.1125   -1.8875    0.0000 C   0  0  0  0  0  0  0  0  0  0  0  0
   -1.1000   -0.2792    0.0000 C   0  0  0  0  0  0  0  0  0  0  0  0
    0.8542   -1.8875    0.0000 C   0  0  0  0  0  0  0  0  0  0  0  0
    1.8375    0.2958    0.0000 C   0  0  0  0  0  0  0  0  0  0  0  0
   -2.0833    0.2958    0.0000 C   0  0  0  0  0  0  0  0  0  0  0  0
   -2.0833    1.4333    0.0000 C   0  0  0  0  0  0  0  0  0  0  0  0
    0.8542    2.0000    0.0000 C   0  0  0  0  0  0  0  0  0  0  0  0
    1.8375    1.4333    0.0000 C   0  0  0  0  0  0  0  0  0  0  0  0
   -1.1125    3.1125    0.0000 C   0  0  0  0  0  0  0  0  0  0  0  0
    2.7792    0.9208    0.0000 O   0  0  0  0  0  0  0  0  0  0  0  0
   -1.1125   -3.1667    0.0000 C   0  0  0  0  0  0  0  0  0  0  0  0
   -2.5125   -1.8875    0.0000 C   0  0  0  0  0  0  0  0  0  0  0  0
    1.8500   -0.8875    0.0000 C   0  0  0  0  0  0  0  0  0  0  0  0
    4.0167    0.4125    0.0000 C   0  0  0  0  0  0  0  0  0  0  0  0
  2  1  1  0
  3  1  1  0
  4  6  1  0
  5  6  1  0
  6  9  1  0
  7  5  1  0
  8 12  1  0
  9 10  1  0
 10  1  1  0
 11  3  1  0
 12 11  1  0
 13  1  1  0
 14  8  1  0
 15  5  1  0
 16  5  1  0
 17  8  1  0
 18 14  1  0
  3  2  1  0
  4  8  1  0
  4  7  1  0
M  END
>  <ID>  (1762) 


>  <MOLENAME>  (1762) 
2-METHOXY-5 (6)EPOXY-TETRAHYDROCARYOPHYLLENE

>  <therap>  (1762) 
nan

>  <ref>  (1762) 
nan

>  <cas#>  (1762) 
nan

>  <source>  (1762) 
derivative

>  <status>  (1762) 
undetermined activity

>  <tradename>  (1762) 
nan

>  <SMILES>  (1762) 
COC1(C)CCC2OC2(C)CCC2C1CC2(C)C

>  <standardized_failed>  (1762) 
False

$$$$

     RDKit          2D

 13 14  0  0  0  0  0  0  0  0999 V2000
    0.9542   -0.5750    0.0000 C   0  0  0  0  0  0  0  0  0  0  0  0
    0.9542    0.2500    0.0000 C   0  0  0  0  0  0  0  0  0  0  0  0
    1.6667   -0.9875    0.0000 C   0  0  0  0  0  0  0  0  0  0  0  0
    0.2375    0.6625    0.0000 C   0  0  0  0  0  0  0  0  0  0  0  0
    2.3792   -0.5667    0.0000 C   0  0  0  0  0  0  0  0  0  0  0  0
    1.6625    0.6708    0.0000 O   0  0  0  0  0  0  0  0  0  0  0  0
    0.2375   -0.9917    0.0000 C   0  0  0  0  0  0  0  0  0  0  0  0
    2.3792    0.2583    0.0000 C   0  0  0  0  0  0  0  0  0  0  0  0
    1.6667   -1.8125    0.0000 O   0  0  0  0  0  0  0  0  0  0  0  0
   -0.4750    0.2500    0.0000 C   0  0  0  0  0  0  0  0  0  0  0  0
   -0.4750   -0.5792    0.0000 C   0  0  0  0  0  0  0  0  0  0  0  0
   -1.1958    0.6625    0.0000 O   0  0  0  0  0  0  0  0  0  0  0  0
   -1.1958    1.4875    0.0000 C   0  0  0  0  0  0  0  0  0  0  0  0
  2  1  2  0
  3  1  1  0
  4  2  1  0
  5  3  1  0
  6  2  1  0
  7  1  1  0
  8  5  2  0
  9  3  2  0
 10 11  1  0
 11  7  2  0
 12 10  1  0
 13 12  1  0
  4 10  2  0
  6  8  1  0
M  END
>  <ID>  (1763) 


>  <MOLENAME>  (1763) 
7-METHOXYCHROMONE

>  <therap>  (1763) 
nan

>  <ref>  (1763) 
nan

>  <cas#>  (1763) 
nan

>  <source>  (1763) 
5-desmethoxy analog of Salicornia metabolite

>  <status>  (1763) 
undetermined activity

>  <tradename>  (1763) 
nan

>  <SMILES>  (1763) 
COc1cc2c(cc1)c(=O)cco2

>  <standardized_failed>  (1763) 
False

$$$$

     RDKit          2D

 34 37  0  0  0  0  0  0  0  0999 V2000
    3.4792   -0.7042    0.0000 C   0  0  0  0  0  0  0  0  0  0  0  0
    2.7292   -1.1375    0.0000 C   0  0  0  0  0  0  0  0  0  0  0  0
    1.9667   -0.7042    0.0000 C   0  0  0  0  0  0  0  0  0  0  0  0
    1.2042   -1.1375    0.0000 C   0  0  0  0  0  0  0  0  0  0  0  0
    3.4792    0.1708    0.0000 C   0  0  0  0  0  0  0  0  0  0  0  0
    1.2042   -2.0167    0.0000 C   0  0  0  0  0  0  0  0  0  0  0  0
    0.4542   -2.4500    0.0000 C   0  0  0  0  0  0  0  0  0  0  0  0
    4.3167    0.4375    0.0000 C   0  0  0  0  0  0  0  0  0  0  0  0
   -0.2958   -2.0167    0.0000 C   0  0  0  0  0  0  0  0  0  0  0  0
    4.3167   -0.9750    0.0000 C   0  0  0  0  0  0  0  0  0  0  0  0
    2.7292    0.6083    0.0000 C   0  0  0  0  0  0  0  0  0  0  0  0
    1.9667    0.1708    0.0000 C   0  0  0  0  0  0  0  0  0  0  0  0
    2.7292   -2.0167    0.0000 C   0  0  0  0  0  0  0  0  0  0  0  0
    0.4542   -0.7042    0.0000 C   0  0  0  0  0  0  0  0  0  0  0  0
    1.9667   -2.4500    0.0000 C   0  0  0  0  0  0  0  0  0  0  0  0
    4.8292   -0.2667    0.0000 C   0  0  0  0  0  0  0  0  0  0  0  0
   -1.0458   -2.4500    0.0000 O   0  0  0  0  0  0  0  0  0  0  0  0
   -1.8083   -2.0167    0.0000 C   0  0  0  0  0  0  0  0  0  0  0  0
   -0.2958   -1.1375    0.0000 C   0  0  0  0  0  0  0  0  0  0  0  0
   -1.8083   -1.1500    0.0000 O   0  0  0  0  0  0  0  0  0  0  0  0
    7.4417    0.3375    0.0000 C   0  0  0  0  0  0  0  0  0  0  0  0
    6.8667    0.9833    0.0000 C   0  0  0  0  0  0  0  0  0  0  0  0
    4.5792    1.2625    0.0000 C   0  0  0  0  0  0  0  0  0  0  0  0
    3.4792   -1.3542    0.0000 C   0  0  0  0  0  0  0  0  0  0  0  0
    1.2042   -0.6292    0.0000 C   0  0  0  0  0  0  0  0  0  0  0  0
    3.4792    0.6625    0.0000 C   0  0  0  0  0  0  0  0  0  0  0  0
    0.1042   -2.7292    0.0000 C   0  0  0  0  0  0  0  0  0  0  0  0
    0.9292   -2.7667    0.0000 C   0  0  0  0  0  0  0  0  0  0  0  0
    6.0167    0.8000    0.0000 C   0  0  0  0  0  0  0  0  0  0  0  0
   -2.5583   -2.4500    0.0000 C   0  0  0  0  0  0  0  0  0  0  0  0
    5.4292    1.4583    0.0000 C   0  0  0  0  0  0  0  0  0  0  0  0
    8.2792    0.5208    0.0000 C   0  0  0  0  0  0  0  0  0  0  0  0
    7.1667   -0.4875    0.0000 C   0  0  0  0  0  0  0  0  0  0  0  0
    4.0042    1.9208    0.0000 C   0  0  0  0  0  0  0  0  0  0  0  0
  2  1  1  0
  3  2  2  0
  4  3  1  0
  5  1  1  0
  6 15  1  0
  7  6  1  0
  8  5  1  0
  9  7  1  0
 10  1  1  0
 11  5  1  0
 12 11  1  0
 13  2  1  0
 14  4  1  0
 15 13  1  0
 16 10  1  0
  9 17  1  1
 18 17  1  0
 19 14  1  0
 20 18  2  0
 21 22  2  0
 22 29  1  0
 23  8  1  0
  1 24  1  6
 25  4  1  0
  5 26  1  1
 27  7  1  0
 28  7  1  0
 29 31  1  0
 30 18  1  0
 31 23  1  0
 32 21  1  0
 33 21  1  0
 34 23  1  0
 16  8  1  0
 12  3  1  0
  4  6  1  0
 19  9  1  0
M  END
>  <ID>  (1764) 


>  <MOLENAME>  (1764) 
LANOSTEROL ACETATE

>  <therap>  (1764) 
nan

>  <ref>  (1764) 
J Chem Soc 1953: 571

>  <cas#>  (1764) 
nan

>  <source>  (1764) 
derivative of lanosterol

>  <status>  (1764) 
undetermined activity

>  <tradename>  (1764) 
nan

>  <SMILES>  (1764) 
CC(=O)O[C@H]1CCC2(C)C3=C(CCC2C1(C)C)[C@]1(C)CCC(C(C)CCC=C(C)C)[C@@]1(C)CC3

>  <standardized_failed>  (1764) 
False

$$$$

     RDKit          2D

 18 20  0  0  0  0  0  0  0  0999 V2000
    0.3792   -0.2000    0.0000 C   0  0  0  0  0  0  0  0  0  0  0  0
    0.1542    1.1208    0.0000 C   0  0  0  0  0  0  0  0  0  0  0  0
   -2.1458    0.7333    0.0000 C   0  0  0  0  0  0  0  0  0  0  0  0
   -0.6625   -1.0667    0.0000 C   0  0  0  0  0  0  0  0  0  0  0  0
   -1.9208   -0.5875    0.0000 C   0  0  0  0  0  0  0  0  0  0  0  0
   -1.1208    1.5708    0.0000 C   0  0  0  0  0  0  0  0  0  0  0  0
    1.6375   -0.6792    0.0000 O   0  0  0  0  0  0  0  0  0  0  0  0
    1.2000    1.9625    0.0000 C   0  0  0  0  0  0  0  0  0  0  0  0
    2.6792    0.1958    0.0000 C   0  0  0  0  0  0  0  0  0  0  0  0
    2.4542    1.4833    0.0000 C   0  0  0  0  0  0  0  0  0  0  0  0
   -3.1208   -1.1875    0.0000 O   0  0  0  0  0  0  0  0  0  0  0  0
   -3.4625    0.9458    0.0000 C   0  0  0  0  0  0  0  0  0  0  0  0
   -4.0625   -0.2542    0.0000 C   0  0  0  0  0  0  0  0  0  0  0  0
    3.9542   -0.2875    0.0000 O   0  0  0  0  0  0  0  0  0  0  0  0
   -0.4458   -2.4167    0.0000 O   0  0  0  0  0  0  0  0  0  0  0  0
   -1.3625    2.9208    0.0000 O   0  0  0  0  0  0  0  0  0  0  0  0
   -1.5000   -3.2542    0.0000 C   0  0  0  0  0  0  0  0  0  0  0  0
   -2.6208    3.4000    0.0000 C   0  0  0  0  0  0  0  0  0  0  0  0
  2  1  1  0
  3  5  2  0
  4  1  2  0
  5  4  1  0
  6  2  2  0
  7  1  1  0
  8  2  1  0
  9  7  1  0
 10  9  1  0
 11  5  1  0
 12  3  1  0
 13 11  1  0
 14  9  2  0
 15  4  1  0
 16  6  1  0
 17 15  1  0
 18 16  1  0
  3  6  1  0
  8 10  2  0
 13 12  2  0
M  END
>  <ID>  (1765) 


>  <MOLENAME>  (1765) 
ISOPIMPINELLIN

>  <therap>  (1765) 
nan

>  <ref>  (1765) 
J Chem Soc 1945: 540

>  <cas#>  (1765) 
482-27-9

>  <source>  (1765) 
Hercaleum maximum; mp 150-153 C dimorphic (142-145 C)

>  <status>  (1765) 
undetermined activity

>  <tradename>  (1765) 
nan

>  <SMILES>  (1765) 
COc1c2ccc(=O)oc2c(OC)c2c1cco2

>  <standardized_failed>  (1765) 
False

$$$$

     RDKit          2D

 16 17  0  0  0  0  0  0  0  0999 V2000
    6.0042   -3.7292    0.0000 C   0  0  0  0  0  0  0  0  0  0  0  0
    5.2917   -3.3125    0.0000 C   0  0  0  0  0  0  0  0  0  0  0  0
    6.5792   -3.3125    0.0000 C   0  0  0  0  0  0  0  0  0  0  0  0
    4.5750   -3.7292    0.0000 C   0  0  0  0  0  0  0  0  0  0  0  0
    6.0125   -4.5542    0.0000 C   0  0  0  0  0  0  0  0  0  0  0  0
    4.5750   -4.5667    0.0000 C   0  0  0  0  0  0  0  0  0  0  0  0
    7.4167   -3.4542    0.0000 C   0  0  0  0  0  0  0  0  0  0  0  0
    5.2917   -4.9750    0.0000 C   0  0  0  0  0  0  0  0  0  0  0  0
    6.7042   -5.0667    0.0000 C   0  0  0  0  0  0  0  0  0  0  0  0
    7.5500   -4.8292    0.0000 C   0  0  0  0  0  0  0  0  0  0  0  0
    7.8292   -4.0542    0.0000 C   0  0  0  0  0  0  0  0  0  0  0  0
    6.3875   -2.4917    0.0000 O   0  0  0  0  0  0  0  0  0  0  0  0
    5.3000   -2.4667    0.0000 O   0  0  0  0  0  0  0  0  0  0  0  0
    3.8417   -3.3125    0.0000 O   0  0  0  0  0  0  0  0  0  0  0  0
    3.8417   -4.9917    0.0000 O   0  0  0  0  0  0  0  0  0  0  0  0
    7.8792   -2.7292    0.0000 O   0  0  0  0  0  0  0  0  0  0  0  0
  2  1  2  0
  3  1  1  0
  4  2  1  0
  5  1  1  0
  6  8  1  0
  7  3  1  0
  8  5  2  0
  9  5  1  0
 10  9  2  0
 11  7  2  0
 12  3  2  0
 13  2  1  0
 14  4  1  0
 15  6  1  0
 16  7  1  0
  4  6  2  0
 10 11  1  0
M  END
>  <ID>  (1766) 


>  <MOLENAME>  (1766) 
PURPUROGALLIN

>  <therap>  (1766) 
xanthine oxidase inhibitor, antioxidant

>  <ref>  (1766) 
J Chem Soc 1949: 3271; Biotechnol Biochem 61: 890 (1997)

>  <cas#>  (1766) 
569-77-7

>  <source>  (1766) 
gall of Dryophanta divisa

>  <status>  (1766) 
experimental

>  <tradename>  (1766) 
nan

>  <SMILES>  (1766) 
O=c1c(O)cccc2cc(O)c(O)c(O)c12

>  <standardized_failed>  (1766) 
False

$$$$

     RDKit          2D

 38 39  0  0  0  0  0  0  0  0999 V2000
    0.3625   -1.1750    0.0000 C   0  0  0  0  0  0  0  0  0  0  0  0
    1.0750   -0.7625    0.0000 C   0  0  0  0  0  0  0  0  0  0  0  0
    3.9292    0.0625    0.0000 C   0  0  0  0  0  0  0  0  0  0  0  0
   -0.3583   -0.7667    0.0000 C   0  0  0  0  0  0  0  0  0  0  0  0
    3.9292   -0.7625    0.0000 C   0  0  0  0  0  0  0  0  0  0  0  0
    0.3625   -1.9917    0.0000 C   0  0  0  0  0  0  0  0  0  0  0  0
    3.2125    0.4750    0.0000 C   0  0  0  0  0  0  0  0  0  0  0  0
    4.6417    0.4750    0.0000 C   0  0  0  0  0  0  0  0  0  0  0  0
    1.7917   -1.1750    0.0000 O   0  0  0  0  0  0  0  0  0  0  0  0
    2.5042   -0.7625    0.0000 C   0  0  0  0  0  0  0  0  0  0  0  0
    2.5000    0.0583    0.0000 C   0  0  0  0  0  0  0  0  0  0  0  0
   -0.3500   -2.4042    0.0000 C   0  0  0  0  0  0  0  0  0  0  0  0
    3.2167   -1.1750    0.0000 C   0  0  0  0  0  0  0  0  0  0  0  0
   -1.0583   -1.1750    0.0000 C   0  0  0  0  0  0  0  0  0  0  0  0
    1.0750    0.0625    0.0000 O   0  0  0  0  0  0  0  0  0  0  0  0
    4.6417   -1.1750    0.0000 C   0  0  0  0  0  0  0  0  0  0  0  0
   -0.3583    0.0583    0.0000 C   0  0  0  0  0  0  0  0  0  0  0  0
   -1.0583   -1.9917    0.0000 C   0  0  0  0  0  0  0  0  0  0  0  0
    4.6417    1.3000    0.0000 O   0  0  0  0  0  0  0  0  0  0  0  0
    4.6417   -2.0000    0.0000 C   0  0  0  0  0  0  0  0  0  0  0  0
   -1.0708    0.4708    0.0000 C   0  0  0  0  0  0  0  0  0  0  0  0
    3.9292   -2.4125    0.0000 O   0  0  0  0  0  0  0  0  0  0  0  0
   -1.7833    0.0583    0.0000 O   0  0  0  0  0  0  0  0  0  0  0  0
    1.0750   -2.4042    0.0000 O   0  0  0  0  0  0  0  0  0  0  0  0
    3.2042    1.3000    0.0000 O   0  0  0  0  0  0  0  0  0  0  0  0
    5.3625    0.0625    0.0000 O   0  0  0  0  0  0  0  0  0  0  0  0
   -1.7833   -2.4000    0.0000 O   0  0  0  0  0  0  0  0  0  0  0  0
   -1.0708    1.2875    0.0000 C   0  0  0  0  0  0  0  0  0  0  0  0
    5.3625   -2.4042    0.0000 C   0  0  0  0  0  0  0  0  0  0  0  0
    2.4875    1.7083    0.0000 C   0  0  0  0  0  0  0  0  0  0  0  0
   -0.3583    1.7000    0.0000 C   0  0  0  0  0  0  0  0  0  0  0  0
    6.0750   -1.9917    0.0000 C   0  0  0  0  0  0  0  0  0  0  0  0
    1.0750    1.7000    0.0000 C   0  0  0  0  0  0  0  0  0  0  0  0
    7.5042   -1.9917    0.0000 C   0  0  0  0  0  0  0  0  0  0  0  0
    6.7917   -2.4042    0.0000 C   0  0  0  0  0  0  0  0  0  0  0  0
    0.3542    1.2875    0.0000 C   0  0  0  0  0  0  0  0  0  0  0  0
    1.7875    1.2875    0.0000 C   0  0  0  0  0  0  0  0  0  0  0  0
    8.2167   -2.4042    0.0000 C   0  0  0  0  0  0  0  0  0  0  0  0
  2  1  1  0
  3  5  2  0
  4  1  2  0
  5 13  1  0
  6  1  1  0
  7 11  2  0
  8  3  1  0
  9  2  1  0
 10  9  1  0
 11 10  1  0
 12  6  2  0
 13 10  2  0
 14  4  1  0
 15  2  2  0
 16  5  1  0
 17  4  1  0
 18 12  1  0
 19  8  2  0
 20 16  1  0
 21 17  1  0
 22 20  2  0
 23 21  2  0
 24  6  1  0
 25  7  1  0
 26  8  1  0
 27 18  1  0
 28 21  1  0
 29 20  1  0
 30 25  1  0
 31 28  1  0
 32 29  1  0
 33 36  1  0
 34 35  1  0
 35 32  1  0
 36 31  1  0
 37 33  1  0
 38 34  1  0
 14 18  2  0
  7  3  1  0
M  END
>  <ID>  (1767) 


>  <MOLENAME>  (1767) 
ARTHONIOIC ACID

>  <therap>  (1767) 
nan

>  <ref>  (1767) 
Z Naturforsch B 25: 49 (1970)

>  <cas#>  (1767) 
25556-24-5

>  <source>  (1767) 
Arthonia impolita

>  <status>  (1767) 
undetermined activity

>  <tradename>  (1767) 
nan

>  <SMILES>  (1767) 
CCCCCC(=O)Cc1c(C(=O)Oc2cc(CC(=O)CCCCC)c(C(=O)O)c(OC)c2)c(O)cc(O)c1

>  <standardized_failed>  (1767) 
False

$$$$

     RDKit          2D

 13 13  0  0  0  0  0  0  0  0999 V2000
    5.3542   -2.6417    0.0000 C   0  0  0  0  0  0  0  0  0  0  0  0
    4.6417   -3.0542    0.0000 C   0  0  0  0  0  0  0  0  0  0  0  0
    3.9292   -2.6417    0.0000 C   0  0  0  0  0  0  0  0  0  0  0  0
    3.2167   -3.0542    0.0000 C   0  0  0  0  0  0  0  0  0  0  0  0
    5.3542   -1.8167    0.0000 O   0  0  0  0  0  0  0  0  0  0  0  0
    2.5042   -2.6500    0.0000 C   0  0  0  0  0  0  0  0  0  0  0  0
    6.0667   -3.0500    0.0000 O   0  0  0  0  0  0  0  0  0  0  0  0
    1.7917   -3.0625    0.0000 C   0  0  0  0  0  0  0  0  0  0  0  0
    1.0792   -2.6500    0.0000 C   0  0  0  0  0  0  0  0  0  0  0  0
    1.7917   -3.8917    0.0000 C   0  0  0  0  0  0  0  0  0  0  0  0
    0.3667   -3.0625    0.0000 C   0  0  0  0  0  0  0  0  0  0  0  0
    1.0792   -4.3042    0.0000 C   0  0  0  0  0  0  0  0  0  0  0  0
    0.3667   -3.8917    0.0000 C   0  0  0  0  0  0  0  0  0  0  0  0
  2  1  1  0
  3  2  2  0
  4  3  1  0
  5  1  2  0
  6  4  2  0
  7  1  1  0
  8  6  1  0
  9  8  2  0
 10  8  1  0
 11  9  1  0
 12 10  2  0
 13 12  1  0
 11 13  2  0
M  END
>  <ID>  (1768) 


>  <MOLENAME>  (1768) 
JUAREZIC ACID

>  <therap>  (1768) 
nan

>  <ref>  (1768) 
JACS 108: 3016 (1986); Phytochemistry 29: 2551 (1990)

>  <cas#>  (1768) 
1552-94-9

>  <source>  (1768) 
propolis and Populus spp

>  <status>  (1768) 
undetermined activity

>  <tradename>  (1768) 
nan

>  <SMILES>  (1768) 
O=C(O)/C=C/C=C/c1ccccc1

>  <standardized_failed>  (1768) 
False

$$$$

     RDKit          2D

 20 19  0  0  0  0  0  0  0  0999 V2000
    4.2542   -2.4792    0.0000 C   0  0  0  0  0  0  0  0  0  0  0  0
    4.2542   -3.3042    0.0000 C   0  0  0  0  0  0  0  0  0  0  0  0
    4.9667   -2.0750    0.0000 C   0  0  0  0  0  0  0  0  0  0  0  0
    4.9667   -1.2542    0.0000 C   0  0  0  0  0  0  0  0  0  0  0  0
    2.8292   -3.3042    0.0000 O   0  0  0  0  0  0  0  0  0  0  0  0
    2.8292   -0.8500    0.0000 C   0  0  0  0  0  0  0  0  0  0  0  0
   -0.0208   -0.8542    0.0000 C   0  0  0  0  0  0  0  0  0  0  0  0
    3.5417   -3.7167    0.0000 C   0  0  0  0  0  0  0  0  0  0  0  0
    3.5375   -2.0667    0.0000 C   0  0  0  0  0  0  0  0  0  0  0  0
    4.2542   -0.8417    0.0000 C   0  0  0  0  0  0  0  0  0  0  0  0
    3.5417   -1.2542    0.0000 C   0  0  0  0  0  0  0  0  0  0  0  0
   -0.7333   -1.2667    0.0000 C   0  0  0  0  0  0  0  0  0  0  0  0
    0.6917   -1.2667    0.0000 C   0  0  0  0  0  0  0  0  0  0  0  0
    2.1167   -1.2625    0.0000 C   0  0  0  0  0  0  0  0  0  0  0  0
    1.4042   -0.8542    0.0000 C   0  0  0  0  0  0  0  0  0  0  0  0
   -1.4458   -0.8625    0.0000 C   0  0  0  0  0  0  0  0  0  0  0  0
    4.2500   -0.0167    0.0000 C   0  0  0  0  0  0  0  0  0  0  0  0
   -2.1583   -1.2750    0.0000 C   0  0  0  0  0  0  0  0  0  0  0  0
   -1.4500   -0.0292    0.0000 C   0  0  0  0  0  0  0  0  0  0  0  0
    1.4000   -0.0292    0.0000 C   0  0  0  0  0  0  0  0  0  0  0  0
  2  1  2  0
  3  1  1  0
  4  3  1  0
  5  8  1  0
  6 11  1  0
  7 13  1  0
  8  2  1  0
  9  1  1  0
 10  4  1  0
 11 10  1  0
 12  7  1  0
 13 15  1  0
 14  6  1  0
 15 14  1  0
 16 12  1  0
 10 17  1  1
 18 16  1  0
 19 16  1  0
 15 20  1  1
M  END
>  <ID>  (1769) 


>  <MOLENAME>  (1769) 
PHYTOL

>  <therap>  (1769) 
nan

>  <ref>  (1769) 
J Chem Soc 1966: 2144

>  <cas#>  (1769) 
nan

>  <source>  (1769) 
nettles

>  <status>  (1769) 
undetermined activity

>  <tradename>  (1769) 
nan

>  <SMILES>  (1769) 
C/C(=C\CO)CC[C@H](C)CCC[C@H](C)CCCC(C)C

>  <standardized_failed>  (1769) 
False

$$$$

     RDKit          2D

 24 24  0  0  0  0  0  0  0  0999 V2000
    5.5125   -2.2167    0.0000 C   0  0  0  0  0  0  0  0  0  0  0  0
    5.5125   -3.0417    0.0000 C   0  0  0  0  0  0  0  0  0  0  0  0
    4.7875   -3.4542    0.0000 C   0  0  0  0  0  0  0  0  0  0  0  0
    7.0500   -1.8000    0.0000 C   0  0  0  0  0  0  0  0  0  0  0  0
    4.7875   -1.8000    0.0000 O   0  0  0  0  0  0  0  0  0  0  0  0
    7.0583   -0.9458    0.0000 C   0  0  0  0  0  0  0  0  0  0  0  0
    7.6833   -0.3125    0.0000 C   0  0  0  0  0  0  0  0  0  0  0  0
    6.2250   -1.8000    0.0000 O   0  0  0  0  0  0  0  0  0  0  0  0
    4.0708   -3.0417    0.0000 C   0  0  0  0  0  0  0  0  0  0  0  0
    4.0708   -2.2167    0.0000 C   0  0  0  0  0  0  0  0  0  0  0  0
    7.5250    0.5000    0.0000 C   0  0  0  0  0  0  0  0  0  0  0  0
    7.4625   -2.5125    0.0000 C   0  0  0  0  0  0  0  0  0  0  0  0
    6.7458    0.7708    0.0000 O   0  0  0  0  0  0  0  0  0  0  0  0
    6.2250   -3.4542    0.0000 O   0  0  0  0  0  0  0  0  0  0  0  0
    4.7917   -4.2833    0.0000 O   0  0  0  0  0  0  0  0  0  0  0  0
    8.5500   -0.6917    0.0000 O   0  0  0  0  0  0  0  0  0  0  0  0
    6.0583   -0.4667    0.0000 O   0  0  0  0  0  0  0  0  0  0  0  0
    3.3583   -3.4542    0.0000 O   0  0  0  0  0  0  0  0  0  0  0  0
    8.1500    1.0417    0.0000 O   0  0  0  0  0  0  0  0  0  0  0  0
    7.0500   -3.2250    0.0000 O   0  0  0  0  0  0  0  0  0  0  0  0
    3.3583   -1.8000    0.0000 C   0  0  0  0  0  0  0  0  0  0  0  0
    2.7250   -2.3333    0.0000 O   0  0  0  0  0  0  0  0  0  0  0  0
    8.6500   -3.2125    0.0000 O   0  0  0  0  0  0  0  0  0  0  0  0
    8.2875   -2.5083    0.0000 C   0  0  0  0  0  0  0  0  0  0  0  0
  2  1  1  0
  3  2  1  0
  4  8  1  1
  5  1  1  0
  6  4  1  0
  7  6  1  0
  1  8  1  1
  9  3  1  0
 10  5  1  0
 11  7  1  0
 12  4  1  0
 13 11  2  0
  2 14  1  6
  3 15  1  1
  7 16  1  6
  6 17  1  6
  9 18  1  1
 19 11  1  0
 12 20  1  1
 10 21  1  1
 22 21  1  0
 23 24  1  0
 24 12  1  0
 10  9  1  0
M  END
>  <ID>  (1770) 


>  <MOLENAME>  (1770) 
LACTOBIONIC ACID

>  <therap>  (1770) 
food additive

>  <ref>  (1770) 
nan

>  <cas#>  (1770) 
96-82-2

>  <source>  (1770) 
semisynthetic

>  <status>  (1770) 
undetermined activity

>  <tradename>  (1770) 
nan

>  <SMILES>  (1770) 
O=C(O)[C@H](O)[C@@H](O)[C@H](O[C@@H]1O[C@H](CO)[C@H](O)[C@H](O)[C@H]1O)[C@H](O)CO

>  <standardized_failed>  (1770) 
False

$$$$

     RDKit          2D

 10 10  0  0  0  0  0  0  0  0999 V2000
    4.4917   -2.1000    0.0000 C   0  0  0  0  0  0  0  0  0  0  0  0
    4.9042   -2.8167    0.0000 C   0  0  0  0  0  0  0  0  0  0  0  0
    3.6625   -2.1042    0.0000 C   0  0  0  0  0  0  0  0  0  0  0  0
    4.9042   -1.3875    0.0000 O   0  0  0  0  0  0  0  0  0  0  0  0
    5.7292   -2.8167    0.0000 O   0  0  0  0  0  0  0  0  0  0  0  0
    3.2417   -1.3917    0.0000 O   0  0  0  0  0  0  0  0  0  0  0  0
    3.6625   -3.5292    0.0000 C   0  0  0  0  0  0  0  0  0  0  0  0
    4.4917   -3.5292    0.0000 C   0  0  0  0  0  0  0  0  0  0  0  0
    3.2542   -2.8167    0.0000 C   0  0  0  0  0  0  0  0  0  0  0  0
    3.6542   -0.6750    0.0000 C   0  0  0  0  0  0  0  0  0  0  0  0
  2  1  2  0
  3  1  1  0
  4  1  1  0
  5  2  1  0
  6  3  1  0
  7  9  1  0
  8  2  1  0
  9  3  2  0
 10  6  1  0
  8  7  2  0
M  END
>  <ID>  (1771) 


>  <MOLENAME>  (1771) 
3-METHOXYCATECHOL

>  <therap>  (1771) 
nan

>  <ref>  (1771) 
Phytochemistry 17: 1383, 1401 (1990)

>  <cas#>  (1771) 
934-00-9

>  <source>  (1771) 
Machaerium kuhlmanni

>  <status>  (1771) 
undetermined activity

>  <tradename>  (1771) 
nan

>  <SMILES>  (1771) 
COc1cccc(O)c1O

>  <standardized_failed>  (1771) 
False

$$$$

     RDKit          2D

 23 25  0  0  0  0  0  0  0  0999 V2000
    5.8250   -2.4417    0.0000 C   0  0  0  0  0  0  0  0  0  0  0  0
    5.1125   -2.8542    0.0000 C   0  0  0  0  0  0  0  0  0  0  0  0
    4.3917   -2.4417    0.0000 C   0  0  0  0  0  0  0  0  0  0  0  0
    5.8167   -1.6125    0.0000 C   0  0  0  0  0  0  0  0  0  0  0  0
    5.1042   -1.2042    0.0000 O   0  0  0  0  0  0  0  0  0  0  0  0
    4.3917   -1.6167    0.0000 C   0  0  0  0  0  0  0  0  0  0  0  0
    3.6792   -2.8625    0.0000 C   0  0  0  0  0  0  0  0  0  0  0  0
    3.6792   -1.2042    0.0000 C   0  0  0  0  0  0  0  0  0  0  0  0
    2.9667   -2.4500    0.0000 C   0  0  0  0  0  0  0  0  0  0  0  0
    5.1125   -3.6792    0.0000 O   0  0  0  0  0  0  0  0  0  0  0  0
    6.5292   -1.1917    0.0000 C   0  0  0  0  0  0  0  0  0  0  0  0
    2.9667   -1.6250    0.0000 C   0  0  0  0  0  0  0  0  0  0  0  0
    6.5417   -2.8500    0.0000 O   0  0  0  0  0  0  0  0  0  0  0  0
    3.6792   -3.6875    0.0000 O   0  0  0  0  0  0  0  0  0  0  0  0
    2.2542   -1.2125    0.0000 O   0  0  0  0  0  0  0  0  0  0  0  0
    7.2417   -1.6042    0.0000 C   0  0  0  0  0  0  0  0  0  0  0  0
    6.5250   -0.3750    0.0000 C   0  0  0  0  0  0  0  0  0  0  0  0
    6.5417   -3.6750    0.0000 C   0  0  0  0  0  0  0  0  0  0  0  0
    4.4000   -4.1000    0.0000 C   0  0  0  0  0  0  0  0  0  0  0  0
    2.2542   -0.3875    0.0000 C   0  0  0  0  0  0  0  0  0  0  0  0
    7.9542   -1.1917    0.0000 C   0  0  0  0  0  0  0  0  0  0  0  0
    7.2292    0.0458    0.0000 C   0  0  0  0  0  0  0  0  0  0  0  0
    7.9542   -0.3667    0.0000 C   0  0  0  0  0  0  0  0  0  0  0  0
  2  1  1  0
  3  2  1  0
  4  1  2  0
  5  4  1  0
  6  5  1  0
  7  3  2  0
  8  6  2  0
  9  7  1  0
 10  2  2  0
 11  4  1  0
 12  8  1  0
 13  1  1  0
 14  7  1  0
 15 12  1  0
 16 11  2  0
 17 11  1  0
 18 13  1  0
 19 14  1  0
 20 15  1  0
 21 16  1  0
 22 17  2  0
 23 22  1  0
  6  3  1  0
 21 23  2  0
 12  9  2  0
M  END
>  <ID>  (1772) 


>  <MOLENAME>  (1772) 
GALANGIN TRIMETHYL ETHER

>  <therap>  (1772) 
nan

>  <ref>  (1772) 
Phytpchemistry 15:572 (1976); 19:203 (1980)

>  <cas#>  (1772) 
26964-29-4

>  <source>  (1772) 
Aniba riparia, Bosenbergia pandurata, Gomphrena spp.

>  <status>  (1772) 
undetermined activity

>  <tradename>  (1772) 
nan

>  <SMILES>  (1772) 
COc1cc(OC)c2c(=O)c(OC)c(-c3ccccc3)oc2c1

>  <standardized_failed>  (1772) 
False

$$$$

     RDKit          2D

 16 17  0  0  0  0  0  0  0  0999 V2000
    0.8542   -0.2792    0.0000 C   0  0  0  0  0  0  0  0  0  0  0  0
   -1.0958   -1.8875    0.0000 C   0  0  0  0  0  0  0  0  0  0  0  0
   -1.1000   -0.2792    0.0000 C   0  0  0  0  0  0  0  0  0  0  0  0
    0.8542   -1.8875    0.0000 C   0  0  0  0  0  0  0  0  0  0  0  0
    1.8375    0.2958    0.0000 C   0  0  0  0  0  0  0  0  0  0  0  0
   -1.1000    2.0000    0.0000 C   0  0  0  0  0  0  0  0  0  0  0  0
   -2.0833    0.2958    0.0000 C   0  0  0  0  0  0  0  0  0  0  0  0
   -2.0833    1.4333    0.0000 C   0  0  0  0  0  0  0  0  0  0  0  0
   -0.1208    1.4333    0.0000 C   0  0  0  0  0  0  0  0  0  0  0  0
    1.8375    1.4333    0.0000 C   0  0  0  0  0  0  0  0  0  0  0  0
    2.9792   -0.4500    0.0000 O   0  0  0  0  0  0  0  0  0  0  0  0
   -1.0958    3.3458    0.0000 C   0  0  0  0  0  0  0  0  0  0  0  0
    0.8542    2.0000    0.0000 C   0  0  0  0  0  0  0  0  0  0  0  0
   -0.1208    2.8500    0.0000 O   0  0  0  0  0  0  0  0  0  0  0  0
   -1.0958   -3.1542    0.0000 C   0  0  0  0  0  0  0  0  0  0  0  0
   -2.5125   -1.8875    0.0000 C   0  0  0  0  0  0  0  0  0  0  0  0
  2  4  1  0
  3  1  1  0
  4  1  1  0
  5  1  1  0
  6  8  1  0
  7  3  1  0
  8  7  1  0
  9 13  1  0
 10  5  1  0
 11  5  2  0
 12  6  2  0
 13 10  1  0
 14  9  1  0
 15  2  1  0
 16  2  1  0
  2  3  1  0
  9  6  1  0
M  END
>  <ID>  (1773) 


>  <MOLENAME>  (1773) 
ISOKOBUSONE

>  <therap>  (1773) 
nan

>  <ref>  (1773) 
Chem Pharm Bull 17:1390 (1969); 42:138 (1994)

>  <cas#>  (1773) 
24173-72-6

>  <source>  (1773) 
Cyperus rotundus, Sindora sumatrana

>  <status>  (1773) 
undetermined activity

>  <tradename>  (1773) 
nan

>  <SMILES>  (1773) 
C=C1CCC2C(CC2(C)C)C(=O)CCC1O

>  <standardized_failed>  (1773) 
False

$$$$

     RDKit          2D

 22 24  0  0  0  0  0  0  0  0999 V2000
    7.7125   -2.8042    0.0000 C   0  0  0  0  0  0  0  0  0  0  0  0
    8.5167   -2.9792    0.0000 O   0  0  0  0  0  0  0  0  0  0  0  0
    7.3000   -3.5167    0.0000 C   0  0  0  0  0  0  0  0  0  0  0  0
    5.5917   -6.1625    0.0000 C   0  0  0  0  0  0  0  0  0  0  0  0
    4.4542   -6.3250    0.0000 C   0  0  0  0  0  0  0  0  0  0  0  0
    4.9542   -5.6667    0.0000 C   0  0  0  0  0  0  0  0  0  0  0  0
    8.6000   -3.8000    0.0000 C   0  0  0  0  0  0  0  0  0  0  0  0
    5.0917   -6.8167    0.0000 C   0  0  0  0  0  0  0  0  0  0  0  0
    6.6917   -4.0667    0.0000 C   0  0  0  0  0  0  0  0  0  0  0  0
    6.4125   -6.1292    0.0000 C   0  0  0  0  0  0  0  0  0  0  0  0
    5.9125   -3.8167    0.0000 C   0  0  0  0  0  0  0  0  0  0  0  0
    7.8542   -4.1292    0.0000 C   0  0  0  0  0  0  0  0  0  0  0  0
    4.7750   -4.8667    0.0000 C   0  0  0  0  0  0  0  0  0  0  0  0
    7.1292   -4.7542    0.0000 C   0  0  0  0  0  0  0  0  0  0  0  0
    7.3792   -2.0375    0.0000 O   0  0  0  0  0  0  0  0  0  0  0  0
    7.0167   -5.5750    0.0000 C   0  0  0  0  0  0  0  0  0  0  0  0
    5.1542   -4.1292    0.0000 C   0  0  0  0  0  0  0  0  0  0  0  0
    9.3125   -4.2250    0.0000 O   0  0  0  0  0  0  0  0  0  0  0  0
    5.8792   -2.9917    0.0000 O   0  0  0  0  0  0  0  0  0  0  0  0
    6.7167   -6.9042    0.0000 C   0  0  0  0  0  0  0  0  0  0  0  0
    4.1375   -7.0792    0.0000 C   0  0  0  0  0  0  0  0  0  0  0  0
    3.8000   -5.8167    0.0000 C   0  0  0  0  0  0  0  0  0  0  0  0
  2  1  1  0
  3  1  1  0
  4 10  1  0
  5  6  1  0
  6 13  1  0
  7  2  1  0
  8  4  1  0
  9  3  1  0
 10 16  1  0
 11  9  1  0
 12  3  1  0
 13 17  1  0
 14  9  1  0
 15  1  2  0
 16 14  1  0
 17 11  1  0
 18  7  2  0
 19 11  2  0
 20 10  2  0
 21  5  1  0
 22  5  1  0
 12  7  1  0
  4  6  1  0
  8  5  1  0
M  END
>  <ID>  (1774) 


>  <MOLENAME>  (1774) 
2-METHYLENE-5-(2.5-DIOXOTETRAHYDROFURAN-3-YL)-6-OXO--10.10-DIMETHYLBICYCLO[7: 2: 0]UNDECANE

>  <therap>  (1774) 
nan

>  <ref>  (1774) 
nan

>  <cas#>  (1774) 
nan

>  <source>  (1774) 
derivative

>  <status>  (1774) 
undetermined activity

>  <tradename>  (1774) 
nan

>  <SMILES>  (1774) 
C=C1CCC(C2CC(=O)OC2=O)C(=O)CCC2C1CC2(C)C

>  <standardized_failed>  (1774) 
False

$$$$

     RDKit          2D

 23 22  0  0  0  0  0  0  0  0999 V2000
   -0.9083   -1.4417    0.0000 C   0  0  0  0  0  0  0  0  0  0  0  0
   -0.9083   -2.2667    0.0000 O   0  0  0  0  0  0  0  0  0  0  0  0
   -1.6333   -1.0292    0.0000 O   0  0  0  0  0  0  0  0  0  0  0  0
   -3.0625   -1.0292    0.0000 C   0  0  0  0  0  0  0  0  0  0  0  0
   -2.3458   -1.4417    0.0000 C   0  0  0  0  0  0  0  0  0  0  0  0
   -3.0708   -0.2042    0.0000 O   0  0  0  0  0  0  0  0  0  0  0  0
   -4.4958   -1.0292    0.0000 O   0  0  0  0  0  0  0  0  0  0  0  0
   -0.1958   -1.0250    0.0000 C   0  0  0  0  0  0  0  0  0  0  0  0
   -3.7750   -1.4417    0.0000 C   0  0  0  0  0  0  0  0  0  0  0  0
    0.5250   -1.4375    0.0000 C   0  0  0  0  0  0  0  0  0  0  0  0
    9.1167   -1.4125    0.0000 C   0  0  0  0  0  0  0  0  0  0  0  0
    8.4000   -1.0000    0.0000 C   0  0  0  0  0  0  0  0  0  0  0  0
    6.2542   -1.4167    0.0000 C   0  0  0  0  0  0  0  0  0  0  0  0
    6.9667   -1.0042    0.0000 C   0  0  0  0  0  0  0  0  0  0  0  0
    7.6792   -1.4167    0.0000 C   0  0  0  0  0  0  0  0  0  0  0  0
    1.2417   -1.0167    0.0000 C   0  0  0  0  0  0  0  0  0  0  0  0
    1.9542   -1.4292    0.0000 C   0  0  0  0  0  0  0  0  0  0  0  0
    2.6667   -1.0167    0.0000 C   0  0  0  0  0  0  0  0  0  0  0  0
    3.3875   -1.4292    0.0000 C   0  0  0  0  0  0  0  0  0  0  0  0
    4.1042   -1.0125    0.0000 C   0  0  0  0  0  0  0  0  0  0  0  0
    4.8167   -1.4250    0.0000 C   0  0  0  0  0  0  0  0  0  0  0  0
    5.5375   -1.0042    0.0000 C   0  0  0  0  0  0  0  0  0  0  0  0
    9.1167   -2.2417    0.0000 C   0  0  0  0  0  0  0  0  0  0  0  0
  2  1  2  0
  3  1  1  0
  4  5  1  0
  5  3  1  0
  6  4  1  0
  7  9  1  0
  8  1  1  0
  9  4  1  0
 10  8  1  0
 11 12  1  0
 12 15  1  0
 13 22  1  0
 14 13  1  0
 15 14  1  0
 16 10  1  0
 17 16  1  0
 18 17  1  0
 19 18  1  0
 20 19  1  0
 21 20  1  0
 22 21  1  0
 23 11  1  0
M  END
>  <ID>  (1775) 


>  <MOLENAME>  (1775) 
1-MONOPALMITIN

>  <therap>  (1775) 
nan

>  <ref>  (1775) 
nan

>  <cas#>  (1775) 
542-44-9

>  <source>  (1775) 
Asparagus, Momodica spp; widespread in plants

>  <status>  (1775) 
undetermined activity

>  <tradename>  (1775) 
nan

>  <SMILES>  (1775) 
CCCCCCCCCCCCCCCC(=O)OCC(O)CO

>  <standardized_failed>  (1775) 
False

$$$$

     RDKit          2D

 20 22  0  0  0  0  0  0  0  0999 V2000
    2.1292   -1.9250    0.0000 C   0  0  0  0  0  0  0  0  0  0  0  0
    2.8500   -2.3375    0.0000 C   0  0  0  0  0  0  0  0  0  0  0  0
    1.4167   -2.3292    0.0000 C   0  0  0  0  0  0  0  0  0  0  0  0
    2.1292   -1.0917    0.0000 C   0  0  0  0  0  0  0  0  0  0  0  0
    3.5750   -1.9250    0.0000 C   0  0  0  0  0  0  0  0  0  0  0  0
    3.5750   -1.0917    0.0000 C   0  0  0  0  0  0  0  0  0  0  0  0
    2.8542   -0.6667    0.0000 O   0  0  0  0  0  0  0  0  0  0  0  0
    0.7042   -1.9167    0.0000 C   0  0  0  0  0  0  0  0  0  0  0  0
    1.4167   -0.6792    0.0000 C   0  0  0  0  0  0  0  0  0  0  0  0
    0.7042   -1.0917    0.0000 C   0  0  0  0  0  0  0  0  0  0  0  0
    2.8500   -3.1625    0.0000 O   0  0  0  0  0  0  0  0  0  0  0  0
    4.2917   -0.6792    0.0000 C   0  0  0  0  0  0  0  0  0  0  0  0
    1.4167   -3.1542    0.0000 O   0  0  0  0  0  0  0  0  0  0  0  0
   -0.0083   -2.3292    0.0000 O   0  0  0  0  0  0  0  0  0  0  0  0
   -0.0083   -0.6792    0.0000 O   0  0  0  0  0  0  0  0  0  0  0  0
    4.2917    0.1375    0.0000 C   0  0  0  0  0  0  0  0  0  0  0  0
    5.0042   -1.1000    0.0000 C   0  0  0  0  0  0  0  0  0  0  0  0
    5.7167   -0.6917    0.0000 C   0  0  0  0  0  0  0  0  0  0  0  0
    5.0042    0.5500    0.0000 C   0  0  0  0  0  0  0  0  0  0  0  0
    5.7167    0.1375    0.0000 C   0  0  0  0  0  0  0  0  0  0  0  0
  2  1  1  0
  3  1  2  0
  4  1  1  0
  5  2  1  0
  6  7  1  0
  7  4  1  0
  8  3  1  0
  9  4  2  0
 10  9  1  0
 11  2  2  0
 12  6  1  0
 13  3  1  0
 14  8  1  0
 15 10  1  0
 16 12  2  0
 17 12  1  0
 18 17  2  0
 19 16  1  0
 20 18  1  0
 10  8  2  0
  6  5  2  0
 20 19  2  0
M  END
>  <ID>  (1776) 


>  <MOLENAME>  (1776) 
BAICALEIN

>  <therap>  (1776) 
antiviral (HIV)

>  <ref>  (1776) 
Gazz Chim acta 49 (II): 47 (1919); Acta Phytochim 1: 109 (1923); Phytochemistry 10: 3298 (1971)

>  <cas#>  (1776) 
491-67-8

>  <source>  (1776) 
Scutellaria baicalensis

>  <status>  (1776) 
experimental

>  <tradename>  (1776) 
nan

>  <SMILES>  (1776) 
O=c1cc(-c2ccccc2)oc2cc(O)c(O)c(O)c12

>  <standardized_failed>  (1776) 
False

$$$$

     RDKit          2D

 26 27  0  0  0  0  0  0  0  0999 V2000
    8.3667   -3.0167    0.0000 C   0  0  0  0  0  0  0  0  0  0  0  0
    8.3667   -1.5875    0.0000 C   0  0  0  0  0  0  0  0  0  0  0  0
    6.3042   -2.3042    0.0000 C   0  0  0  0  0  0  0  0  0  0  0  0
    8.7792   -2.3042    0.0000 C   0  0  0  0  0  0  0  0  0  0  0  0
    9.6042   -0.8792    0.0000 C   0  0  0  0  0  0  0  0  0  0  0  0
    8.3667   -4.4417    0.0000 C   0  0  0  0  0  0  0  0  0  0  0  0
    2.1542   -1.0292    0.0000 C   0  0  0  0  0  0  0  0  0  0  0  0
    5.8542   -1.7417    0.0000 C   0  0  0  0  0  0  0  0  0  0  0  0
    8.7792   -3.7292    0.0000 O   0  0  0  0  0  0  0  0  0  0  0  0
    8.7792   -0.8792    0.0000 O   0  0  0  0  0  0  0  0  0  0  0  0
    7.1292   -2.3042    0.0000 C   0  0  0  0  0  0  0  0  0  0  0  0
    2.5667   -1.7417    0.0000 O   0  0  0  0  0  0  0  0  0  0  0  0
   10.0167   -0.1667    0.0000 O   0  0  0  0  0  0  0  0  0  0  0  0
    2.5667   -0.3167    0.0000 O   0  0  0  0  0  0  0  0  0  0  0  0
    7.5417   -4.4417    0.0000 O   0  0  0  0  0  0  0  0  0  0  0  0
    7.5417   -1.5917    0.0000 C   0  0  0  0  0  0  0  0  0  0  0  0
    7.5417   -3.0167    0.0000 C   0  0  0  0  0  0  0  0  0  0  0  0
    5.0292   -1.7417    0.0000 C   0  0  0  0  0  0  0  0  0  0  0  0
    3.3917   -1.7417    0.0000 C   0  0  0  0  0  0  0  0  0  0  0  0
    4.6167   -2.4542    0.0000 C   0  0  0  0  0  0  0  0  0  0  0  0
    4.6167   -1.0292    0.0000 C   0  0  0  0  0  0  0  0  0  0  0  0
    3.7917   -2.4542    0.0000 C   0  0  0  0  0  0  0  0  0  0  0  0
    3.7917   -1.0292    0.0000 C   0  0  0  0  0  0  0  0  0  0  0  0
    1.3292   -1.0292    0.0000 C   0  0  0  0  0  0  0  0  0  0  0  0
    8.7792   -5.1542    0.0000 C   0  0  0  0  0  0  0  0  0  0  0  0
   10.0167   -1.5917    0.0000 C   0  0  0  0  0  0  0  0  0  0  0  0
  2  4  1  0
  3 11  1  0
  4  1  2  0
  5 10  1  0
  6  9  1  0
  7 12  1  0
  8  3  2  0
  9  1  1  0
 10  2  1  0
 11 17  2  0
 12 19  1  0
 13  5  2  0
 14  7  2  0
 15  6  2  0
 16 11  1  0
 17  1  1  0
 18  8  1  0
 19 23  2  0
 20 18  1  0
 21 18  2  0
 22 20  2  0
 23 21  1  0
 24  7  1  0
 25  6  1  0
 26  5  1  0
  2 16  2  0
 22 19  1  0
M  END
>  <ID>  (1777) 


>  <MOLENAME>  (1777) 
TRIACETYLRESVERATROL

>  <therap>  (1777) 
nan

>  <ref>  (1777) 
Aust J Chem 24:2427 (1971); Phytochemistry 32:1083 (1993); J Nat Prod 58:1958 (1995)

>  <cas#>  (1777) 
42206-94-0

>  <source>  (1777) 
Kirkpatrickia variolosa (sponge)

>  <status>  (1777) 
undetermined activity

>  <tradename>  (1777) 
nan

>  <SMILES>  (1777) 
CC(=O)Oc1ccc(/C=C/c2cc(OC(C)=O)cc(OC(C)=O)c2)cc1

>  <standardized_failed>  (1777) 
False

$$$$

     RDKit          2D

 13 11  0  0  0  0  0  0  0  0999 V2000
    7.8917   -2.4875    0.0000 C   0  0  0  0  0  0  0  0  0  0  0  0
    5.7417   -1.2417    0.0000 C   0  0  0  0  0  0  0  0  0  0  0  0
    8.6042   -2.9000    0.0000 O   0  0  0  0  0  0  0  0  0  0  0  0
    7.8917   -1.6542    0.0000 O   0  0  0  0  0  0  0  0  0  0  0  0
    7.1792   -2.9000    0.0000 C   0  0  0  0  0  0  0  0  0  0  0  0
    5.7417   -0.4125    0.0000 O   0  0  0  0  0  0  0  0  0  0  0  0
    6.4667   -2.4875    0.0000 C   0  0  0  0  0  0  0  0  0  0  0  0
    5.0417   -1.6542    0.0000 N   0  0  0  0  0  0  0  0  0  0  0  0
    6.4667   -1.6542    0.0000 C   0  0  0  0  0  0  0  0  0  0  0  0
    7.1792   -3.7250    0.0000 N   0  0  0  0  0  0  0  0  0  0  0  0
   10.3667   -2.7417    0.0000 K   0  0  0  0  0 15  0  0  0  0  0  0
    4.3167   -1.2500    0.0000 C   0  0  0  0  0  0  0  0  0  0  0  0
    3.6042   -1.6625    0.0000 C   0  0  0  0  0  0  0  0  0  0  0  0
  2  9  1  0
  3  1  1  0
  4  1  2  0
  5  1  1  0
  6  2  2  0
  5  7  1  0
  8  2  1  0
  9  7  1  0
  5 10  1  1
 12  8  1  0
 13 12  1  0
M  CHG  2   3  -1  11   1
M  END
>  <ID>  (1778) 


>  <MOLENAME>  (1778) 
THEANINE POTASSIUM

>  <therap>  (1778) 
nan

>  <ref>  (1778) 
JACS 64: 1021 (1942); J Sci Food Agric 5: 597 (1954); Biochim Biophys Acta 39: 462 (1960)

>  <cas#>  (1778) 
3081-61-6

>  <source>  (1778) 
Thea sinensis

>  <status>  (1778) 
undetermined activity

>  <tradename>  (1778) 
nan

>  <SMILES>  (1778) 
CCNC(=O)CC[C@H](N)C(=O)O

>  <standardized_failed>  (1778) 
False

$$$$

     RDKit          2D

 20 22  0  0  0  0  0  0  0  0999 V2000
    2.4792   -1.3917    0.0000 C   0  0  0  0  0  0  0  0  0  0  0  0
    3.1917   -1.8042    0.0000 C   0  0  0  0  0  0  0  0  0  0  0  0
    1.7667   -1.8042    0.0000 C   0  0  0  0  0  0  0  0  0  0  0  0
    1.7625   -2.6292    0.0000 C   0  0  0  0  0  0  0  0  0  0  0  0
    3.1917   -2.6292    0.0000 C   0  0  0  0  0  0  0  0  0  0  0  0
    2.4792   -3.0500    0.0000 C   0  0  0  0  0  0  0  0  0  0  0  0
    3.9042   -1.3917    0.0000 C   0  0  0  0  0  0  0  0  0  0  0  0
    1.0500   -1.3917    0.0000 C   0  0  0  0  0  0  0  0  0  0  0  0
    4.6167   -1.8042    0.0000 C   0  0  0  0  0  0  0  0  0  0  0  0
    3.9042   -3.0417    0.0000 C   0  0  0  0  0  0  0  0  0  0  0  0
    1.0500   -3.0500    0.0000 C   0  0  0  0  0  0  0  0  0  0  0  0
    2.4792   -0.5667    0.0000 O   0  0  0  0  0  0  0  0  0  0  0  0
    0.3375   -1.8125    0.0000 C   0  0  0  0  0  0  0  0  0  0  0  0
    2.4750   -3.8750    0.0000 O   0  0  0  0  0  0  0  0  0  0  0  0
    4.6167   -2.6292    0.0000 C   0  0  0  0  0  0  0  0  0  0  0  0
    0.3375   -2.6375    0.0000 C   0  0  0  0  0  0  0  0  0  0  0  0
    3.9042   -0.5667    0.0000 O   0  0  0  0  0  0  0  0  0  0  0  0
    1.0417   -0.5667    0.0000 O   0  0  0  0  0  0  0  0  0  0  0  0
    5.3375   -3.0417    0.0000 O   0  0  0  0  0  0  0  0  0  0  0  0
   -0.3833   -3.0500    0.0000 C   0  0  0  0  0  0  0  0  0  0  0  0
  2  1  1  0
  3  1  1  0
  4  3  2  0
  5  2  2  0
  6  4  1  0
  7  2  1  0
  8  3  1  0
  9  7  2  0
 10  5  1  0
 11  4  1  0
 12  1  2  0
 13  8  2  0
 14  6  2  0
 15  9  1  0
 16 13  1  0
 17  7  1  0
 18  8  1  0
 19 15  1  0
 20 16  1  0
  6  5  1  0
 11 16  2  0
 15 10  2  0
M  END
>  <ID>  (1779) 


>  <MOLENAME>  (1779) 
EMODIN

>  <therap>  (1779) 
antibacterial, antineoplastic, cathartic, tyrosine kinase inhibitor

>  <ref>  (1779) 
Oncogene 17: 913 (1998); Planta Med 65: 9 (1999); Clin Cancer Res 5: 343 (1999)

>  <cas#>  (1779) 
518-82-1

>  <source>  (1779) 
Cascara, Rheum and Rhammnus species

>  <status>  (1779) 
experimental

>  <tradename>  (1779) 
nan

>  <SMILES>  (1779) 
Cc1cc2c(C(=O)c3c(cc(O)cc3O)C2=O)c(O)c1

>  <standardized_failed>  (1779) 
False

$$$$

     RDKit          2D

 19 21  0  0  0  0  0  0  0  0999 V2000
    1.2417   -0.2917    0.0000 C   0  0  0  0  0  0  0  0  0  0  0  0
    1.2375    0.5375    0.0000 C   0  0  0  0  0  0  0  0  0  0  0  0
    0.5167   -0.7125    0.0000 C   0  0  0  0  0  0  0  0  0  0  0  0
    0.5125    0.9583    0.0000 C   0  0  0  0  0  0  0  0  0  0  0  0
   -0.2000    0.5333    0.0000 C   0  0  0  0  0  0  0  0  0  0  0  0
   -0.1958   -0.3042    0.0000 C   0  0  0  0  0  0  0  0  0  0  0  0
    1.9625   -0.7042    0.0000 C   0  0  0  0  0  0  0  0  0  0  0  0
    1.9542    0.9583    0.0000 C   0  0  0  0  0  0  0  0  0  0  0  0
    2.6792   -0.2875    0.0000 C   0  0  0  0  0  0  0  0  0  0  0  0
    2.6750    0.5458    0.0000 C   0  0  0  0  0  0  0  0  0  0  0  0
    0.5042    1.7833    0.0000 O   0  0  0  0  0  0  0  0  0  0  0  0
    0.5250   -1.5375    0.0000 O   0  0  0  0  0  0  0  0  0  0  0  0
    1.9667   -1.5292    0.0000 O   0  0  0  0  0  0  0  0  0  0  0  0
    1.9417    1.7833    0.0000 O   0  0  0  0  0  0  0  0  0  0  0  0
    3.3875    0.9708    0.0000 O   0  0  0  0  0  0  0  0  0  0  0  0
   -0.9208    0.9458    0.0000 C   0  0  0  0  0  0  0  0  0  0  0  0
   -0.9208   -0.7125    0.0000 C   0  0  0  0  0  0  0  0  0  0  0  0
   -1.6333   -0.3000    0.0000 C   0  0  0  0  0  0  0  0  0  0  0  0
   -1.6333    0.5250    0.0000 C   0  0  0  0  0  0  0  0  0  0  0  0
  2  1  2  0
  3  1  1  0
  4  2  1  0
  5  6  2  0
  6  3  1  0
  7  1  1  0
  8  2  1  0
  9  7  2  0
 10  9  1  0
 11  4  2  0
 12  3  2  0
 13  7  1  0
 14  8  1  0
 15 10  1  0
 16  5  1  0
 17  6  1  0
 18 17  2  0
 19 18  1  0
  8 10  2  0
  4  5  1  0
 19 16  2  0
M  END
>  <ID>  (1780) 


>  <MOLENAME>  (1780) 
PURPURIN

>  <therap>  (1780) 
xanthin oxidase inhibitor, irritant

>  <ref>  (1780) 
J Chem Soc 1928:229; 1929:1399; 1931:3206; Anticancer Res 17:3293 (1997)

>  <cas#>  (1780) 
81-54-9

>  <source>  (1780) 
Rubia and Gallium spp

>  <status>  (1780) 
experimental

>  <tradename>  (1780) 
nan

>  <SMILES>  (1780) 
O=C1c2c(cccc2)C(=O)c2c1c(O)cc(O)c2O

>  <standardized_failed>  (1780) 
False

$$$$

     RDKit          2D

 43 44  0  0  0  0  0  0  0  0999 V2000
   -1.2208   -3.5792    0.0000 C   0  0  0  0  0  0  0  0  0  0  0  0
   13.0292   -3.5500    0.0000 C   0  0  0  0  0  0  0  0  0  0  0  0
   13.5792   -2.9417    0.0000 C   0  0  0  0  0  0  0  0  0  0  0  0
   -1.2208   -4.4042    0.0000 C   0  0  0  0  0  0  0  0  0  0  0  0
   -1.9333   -3.1667    0.0000 C   0  0  0  0  0  0  0  0  0  0  0  0
   -0.5083   -3.1667    0.0000 C   0  0  0  0  0  0  0  0  0  0  0  0
   12.3167   -3.1292    0.0000 C   0  0  0  0  0  0  0  0  0  0  0  0
   11.6042   -3.5417    0.0000 C   0  0  0  0  0  0  0  0  0  0  0  0
    0.2042   -3.5792    0.0000 C   0  0  0  0  0  0  0  0  0  0  0  0
   10.8917   -3.1375    0.0000 C   0  0  0  0  0  0  0  0  0  0  0  0
   13.4375   -4.2542    0.0000 C   0  0  0  0  0  0  0  0  0  0  0  0
   -1.9333   -4.8167    0.0000 C   0  0  0  0  0  0  0  0  0  0  0  0
   14.3292   -3.2792    0.0000 C   0  0  0  0  0  0  0  0  0  0  0  0
   -2.6375   -3.5792    0.0000 C   0  0  0  0  0  0  0  0  0  0  0  0
    2.3417   -3.1625    0.0000 C   0  0  0  0  0  0  0  0  0  0  0  0
    8.7542   -3.5542    0.0000 C   0  0  0  0  0  0  0  0  0  0  0  0
    0.9167   -3.1667    0.0000 C   0  0  0  0  0  0  0  0  0  0  0  0
   10.1792   -3.5500    0.0000 C   0  0  0  0  0  0  0  0  0  0  0  0
    3.7667   -3.1542    0.0000 C   0  0  0  0  0  0  0  0  0  0  0  0
    7.3292   -3.5542    0.0000 C   0  0  0  0  0  0  0  0  0  0  0  0
    1.6292   -3.5750    0.0000 C   0  0  0  0  0  0  0  0  0  0  0  0
    9.4667   -3.1417    0.0000 C   0  0  0  0  0  0  0  0  0  0  0  0
    8.0417   -3.1417    0.0000 C   0  0  0  0  0  0  0  0  0  0  0  0
    3.0542   -3.5667    0.0000 C   0  0  0  0  0  0  0  0  0  0  0  0
    6.6167   -3.1500    0.0000 C   0  0  0  0  0  0  0  0  0  0  0  0
    4.4792   -3.5667    0.0000 C   0  0  0  0  0  0  0  0  0  0  0  0
   14.2417   -4.0917    0.0000 C   0  0  0  0  0  0  0  0  0  0  0  0
   -2.6375   -4.4042    0.0000 C   0  0  0  0  0  0  0  0  0  0  0  0
    5.9042   -3.5625    0.0000 C   0  0  0  0  0  0  0  0  0  0  0  0
    5.1917   -3.1542    0.0000 C   0  0  0  0  0  0  0  0  0  0  0  0
   12.3167   -2.3042    0.0000 O   0  0  0  0  0  0  0  0  0  0  0  0
   12.4500   -4.1292    0.0000 C   0  0  0  0  0  0  0  0  0  0  0  0
   -0.5000   -4.8167    0.0000 C   0  0  0  0  0  0  0  0  0  0  0  0
   12.9667   -2.3542    0.0000 C   0  0  0  0  0  0  0  0  0  0  0  0
   13.9292   -2.2292    0.0000 C   0  0  0  0  0  0  0  0  0  0  0  0
   -1.3458   -2.5792    0.0000 C   0  0  0  0  0  0  0  0  0  0  0  0
   -2.5208   -2.5792    0.0000 C   0  0  0  0  0  0  0  0  0  0  0  0
   -3.3500   -4.8125    0.0000 O   0  0  0  0  0  0  0  0  0  0  0  0
   14.8250   -4.6792    0.0000 O   0  0  0  0  0  0  0  0  0  0  0  0
    0.9167   -2.3417    0.0000 C   0  0  0  0  0  0  0  0  0  0  0  0
   10.1875   -4.3750    0.0000 C   0  0  0  0  0  0  0  0  0  0  0  0
    3.7667   -2.3292    0.0000 C   0  0  0  0  0  0  0  0  0  0  0  0
    7.3375   -4.3792    0.0000 C   0  0  0  0  0  0  0  0  0  0  0  0
  2  7  1  0
  3  2  1  0
  4  1  2  0
  5  1  1  0
  6  1  1  0
  7  8  1  0
  8 10  2  0
  9  6  2  0
 10 18  1  0
 11  2  1  0
 12  4  1  0
 13  3  1  0
 14  5  1  0
 15 21  1  0
 16 23  2  0
 17  9  1  0
 18 22  2  0
 19 24  1  0
 20 25  2  0
 21 17  2  0
 22 16  1  0
 23 20  1  0
 24 15  2  0
 25 29  1  0
 26 19  2  0
 27 11  1  0
 28 14  1  0
 29 30  2  0
 30 26  1  0
 31  7  2  0
  2 32  1  6
 33  4  1  0
 34  3  1  0
 35  3  1  0
 36  5  1  0
 37  5  1  0
 28 38  1  1
 27 39  1  6
 40 17  1  0
 41 18  1  0
 42 19  1  0
 43 20  1  0
 12 28  1  0
 13 27  1  0
M  END
>  <ID>  (1781) 


>  <MOLENAME>  (1781) 
CAPSANTHIN

>  <therap>  (1781) 
antineoplastic

>  <ref>  (1781) 
nan

>  <cas#>  (1781) 
465-42-9

>  <source>  (1781) 
Capsicum annum

>  <status>  (1781) 
experimental

>  <tradename>  (1781) 
nan

>  <SMILES>  (1781) 
CC1=C(/C=C/C(C)=C/C=C/C(C)=C/C=C/C=C(C)/C=C/C=C(C)/C=C/C(=O)[C@]2(C)C[C@@H](O)CC2(C)C)C(C)(C)C[C@H](O)C1

>  <standardized_failed>  (1781) 
False

$$$$

     RDKit          2D

 19 20  0  0  0  0  0  0  0  0999 V2000
    4.6917   -2.9417    0.0000 C   0  0  0  0  0  0  0  0  0  0  0  0
    6.1292   -4.1000    0.0000 C   0  0  0  0  0  0  0  0  0  0  0  0
    5.3292   -2.4292    0.0000 C   0  0  0  0  0  0  0  0  0  0  0  0
    4.6917   -3.7667    0.0000 C   0  0  0  0  0  0  0  0  0  0  0  0
    6.1292   -2.6167    0.0000 C   0  0  0  0  0  0  0  0  0  0  0  0
    6.4917   -3.3542    0.0000 C   0  0  0  0  0  0  0  0  0  0  0  0
    5.3292   -4.2792    0.0000 C   0  0  0  0  0  0  0  0  0  0  0  0
    3.9792   -2.5292    0.0000 C   0  0  0  0  0  0  0  0  0  0  0  0
    6.6417   -4.7542    0.0000 C   0  0  0  0  0  0  0  0  0  0  0  0
    3.2625   -2.9417    0.0000 C   0  0  0  0  0  0  0  0  0  0  0  0
    3.9792   -4.1792    0.0000 C   0  0  0  0  0  0  0  0  0  0  0  0
    5.1500   -1.6167    0.0000 O   0  0  0  0  0  0  0  0  0  0  0  0
    7.4667   -4.6417    0.0000 O   0  0  0  0  0  0  0  0  0  0  0  0
    3.2625   -3.7667    0.0000 C   0  0  0  0  0  0  0  0  0  0  0  0
    6.6417   -1.9667    0.0000 O   0  0  0  0  0  0  0  0  0  0  0  0
    3.9792   -1.7042    0.0000 O   0  0  0  0  0  0  0  0  0  0  0  0
    6.3375   -5.5167    0.0000 O   0  0  0  0  0  0  0  0  0  0  0  0
    2.5417   -2.5292    0.0000 O   0  0  0  0  0  0  0  0  0  0  0  0
    6.8500   -6.1667    0.0000 C   0  0  0  0  0  0  0  0  0  0  0  0
  2  7  2  0
  3  1  1  0
  4  1  2  0
  5  3  1  0
  6  5  2  0
  7  4  1  0
  8  1  1  0
  9  2  1  0
 10  8  2  0
 11  4  1  0
 12  3  2  0
 13  9  2  0
 14 10  1  0
 15  5  1  0
 16  8  1  0
 17  9  1  0
 18 10  1  0
 19 17  1  0
 14 11  2  0
  2  6  1  0
M  END
>  <ID>  (1782) 


>  <MOLENAME>  (1782) 
METHYL 7-DESHYDROXYPYROGALLIN-4-CARBOXYLATE

>  <therap>  (1782) 
nan

>  <ref>  (1782) 
nan

>  <cas#>  (1782) 
77-41-8

>  <source>  (1782) 
synthetic

>  <status>  (1782) 
undetermined activity

>  <tradename>  (1782) 
nan

>  <SMILES>  (1782) 
COC(=O)c1cc2c(c(O)c(O)cc2)c(=O)c(O)c1

>  <standardized_failed>  (1782) 
False

$$$$

     RDKit          2D

 12 13  0  0  0  0  0  0  0  0999 V2000
    4.0042   -2.4375    0.0000 C   0  0  0  0  0  0  0  0  0  0  0  0
    3.3500   -2.8125    0.0000 O   0  0  0  0  0  0  0  0  0  0  0  0
    4.0042   -1.6792    0.0000 C   0  0  0  0  0  0  0  0  0  0  0  0
    3.3500   -1.3042    0.0000 C   0  0  0  0  0  0  0  0  0  0  0  0
    2.6917   -2.4375    0.0000 C   0  0  0  0  0  0  0  0  0  0  0  0
    2.6917   -1.6792    0.0000 C   0  0  0  0  0  0  0  0  0  0  0  0
    4.6542   -2.8125    0.0000 O   0  0  0  0  0  0  0  0  0  0  0  0
    4.6542   -1.3042    0.0000 O   0  0  0  0  0  0  0  0  0  0  0  0
    2.0417   -2.8125    0.0000 C   0  0  0  0  0  0  0  0  0  0  0  0
    2.0417   -1.3042    0.0000 C   0  0  0  0  0  0  0  0  0  0  0  0
    1.3917   -1.6792    0.0000 C   0  0  0  0  0  0  0  0  0  0  0  0
    1.3917   -2.4375    0.0000 C   0  0  0  0  0  0  0  0  0  0  0  0
  2  1  1  0
  3  1  1  0
  4  3  2  0
  5  2  1  0
  6  4  1  0
  7  1  2  0
  8  3  1  0
  9  5  2  0
 10  6  2  0
 11 10  1  0
 12  9  1  0
  6  5  1  0
 12 11  2  0
M  END
>  <ID>  (1783) 


>  <MOLENAME>  (1783) 
3-HYDROXYCOUMARIN

>  <therap>  (1783) 
nan

>  <ref>  (1783) 
Phytochemistry 16:1451 (1977)

>  <cas#>  (1783) 
939-19-5

>  <source>  (1783) 
Alyxia lucida

>  <status>  (1783) 
undetermined activity

>  <tradename>  (1783) 
nan

>  <SMILES>  (1783) 
O=c1oc2ccccc2cc1O

>  <standardized_failed>  (1783) 
False

$$$$

     RDKit          2D

 31 34  0  0  0  0  0  0  0  0999 V2000
    0.0792   -0.7000    0.0000 C   0  0  0  0  0  0  0  0  0  0  0  0
    0.8875   -1.1542    0.0000 C   0  0  0  0  0  0  0  0  0  0  0  0
    0.0792    0.2333    0.0000 C   0  0  0  0  0  0  0  0  0  0  0  0
    1.7000   -0.7000    0.0000 C   0  0  0  0  0  0  0  0  0  0  0  0
   -0.7208    0.7000    0.0000 C   0  0  0  0  0  0  0  0  0  0  0  0
   -1.5333    0.2333    0.0000 C   0  0  0  0  0  0  0  0  0  0  0  0
   -0.7208   -1.1542    0.0000 C   0  0  0  0  0  0  0  0  0  0  0  0
   -1.5333   -0.7000    0.0000 C   0  0  0  0  0  0  0  0  0  0  0  0
    0.8875    0.7000    0.0000 O   0  0  0  0  0  0  0  0  0  0  0  0
    1.7000    0.2333    0.0000 C   0  0  0  0  0  0  0  0  0  0  0  0
   -0.7208    1.6333    0.0000 C   0  0  0  0  0  0  0  0  0  0  0  0
   -2.3458    0.7000    0.0000 O   0  0  0  0  0  0  0  0  0  0  0  0
    2.5042   -1.1542    0.0000 C   0  0  0  0  0  0  0  0  0  0  0  0
   -2.3625   -1.1542    0.0000 C   0  0  0  0  0  0  0  0  0  0  0  0
   -1.5125    2.0958    0.0000 C   0  0  0  0  0  0  0  0  0  0  0  0
    3.3042   -0.7000    0.0000 C   0  0  0  0  0  0  0  0  0  0  0  0
   -2.3458    1.6333    0.0000 C   0  0  0  0  0  0  0  0  0  0  0  0
    4.1167   -1.1542    0.0000 C   0  0  0  0  0  0  0  0  0  0  0  0
   -3.1500   -0.7000    0.0000 C   0  0  0  0  0  0  0  0  0  0  0  0
    0.8875   -2.0875    0.0000 O   0  0  0  0  0  0  0  0  0  0  0  0
    4.1167   -2.0875    0.0000 C   0  0  0  0  0  0  0  0  0  0  0  0
    2.5042   -2.0875    0.0000 C   0  0  0  0  0  0  0  0  0  0  0  0
   -3.9625   -1.1542    0.0000 C   0  0  0  0  0  0  0  0  0  0  0  0
    3.3042   -2.5500    0.0000 C   0  0  0  0  0  0  0  0  0  0  0  0
   -0.7208   -2.0875    0.0000 O   0  0  0  0  0  0  0  0  0  0  0  0
    4.9500   -0.7000    0.0000 O   0  0  0  0  0  0  0  0  0  0  0  0
    4.9500   -2.5500    0.0000 O   0  0  0  0  0  0  0  0  0  0  0  0
   -2.3333    2.5458    0.0000 C   0  0  0  0  0  0  0  0  0  0  0  0
   -3.2125    1.1500    0.0000 C   0  0  0  0  0  0  0  0  0  0  0  0
   -4.7833   -0.7000    0.0000 C   0  0  0  0  0  0  0  0  0  0  0  0
   -3.9833   -2.0875    0.0000 C   0  0  0  0  0  0  0  0  0  0  0  0
  2  1  1  0
  3  1  2  0
  4  2  1  0
  5  3  1  0
  6  8  1  0
  7  1  1  0
  8  7  2  0
  9  3  1  0
 10  9  1  0
 11  5  1  0
 12  6  1  0
 13  4  1  0
 14  8  1  0
 15 11  2  0
 16 13  2  0
 17 12  1  0
 18 16  1  0
 19 14  1  0
 20  2  2  0
 21 24  1  0
 22 13  1  0
 23 19  2  0
 24 22  2  0
 25  7  1  0
 26 18  1  0
 27 21  1  0
 28 17  1  0
 29 17  1  0
 30 23  1  0
 31 23  1  0
  5  6  2  0
  4 10  2  0
 15 17  1  0
 18 21  2  0
M  END
>  <ID>  (1784) 


>  <MOLENAME>  (1784) 
POMIFERIN

>  <therap>  (1784) 
antioxidant

>  <ref>  (1784) 
JACS 61:2832 (1939); 62:651 (1940); 63:1253 (1941); 68:406 (1946)

>  <cas#>  (1784) 
572-03-2

>  <source>  (1784) 
Maclura pomifera

>  <status>  (1784) 
experimental

>  <tradename>  (1784) 
nan

>  <SMILES>  (1784) 
CC(C)=CCc1c(O)c2c(occ(-c3cc(O)c(O)cc3)c2=O)c2c1OC(C)(C)C=C2

>  <standardized_failed>  (1784) 
False

$$$$

     RDKit          2D

 12 13  0  0  0  0  0  0  0  0999 V2000
    3.3417   -3.2292    0.0000 N   0  0  0  0  0  0  0  0  0  0  0  0
    3.3500   -2.4042    0.0000 C   0  0  0  0  0  0  0  0  0  0  0  0
    4.0625   -1.9917    0.0000 C   0  0  0  0  0  0  0  0  0  0  0  0
    4.0542   -3.6417    0.0000 C   0  0  0  0  0  0  0  0  0  0  0  0
    2.6375   -3.6375    0.0000 C   0  0  0  0  0  0  0  0  0  0  0  0
    4.7667   -0.7500    0.0000 O   0  0  0  0  0  0  0  0  0  0  0  0
    4.0542   -1.1667    0.0000 C   0  0  0  0  0  0  0  0  0  0  0  0
    4.7750   -3.2292    0.0000 C   0  0  0  0  0  0  0  0  0  0  0  0
    4.7750   -2.4042    0.0000 C   0  0  0  0  0  0  0  0  0  0  0  0
    2.6375   -1.9875    0.0000 C   0  0  0  0  0  0  0  0  0  0  0  0
    1.9292   -3.2292    0.0000 C   0  0  0  0  0  0  0  0  0  0  0  0
    1.9292   -2.4042    0.0000 C   0  0  0  0  0  0  0  0  0  0  0  0
  2  1  1  0
  3  2  1  0
  4  1  1  0
  5  1  1  0
  6  7  1  0
  3  7  1  6
  8  4  1  0
  9  8  1  0
  2 10  1  6
 11  5  1  0
 12 11  1  0
 10 12  1  0
  3  9  1  0
M  END
>  <ID>  (1785) 


>  <MOLENAME>  (1785) 
LUPININE

>  <therap>  (1785) 
antifeedant, antiinflammatory, oxytoxic

>  <ref>  (1785) 
Helv Chim Acta 11:1062 (1928); JACS 56:2434 (1934)

>  <cas#>  (1785) 
486-70-4

>  <source>  (1785) 
Anabasis aphylla, Lupinus spp

>  <status>  (1785) 
experimental

>  <tradename>  (1785) 
nan

>  <SMILES>  (1785) 
OC[C@@H]1CCCN2CCCC[C@H]12

>  <standardized_failed>  (1785) 
False

$$$$

     RDKit          2D

 15 17  0  0  0  0  0  0  0  0999 V2000
    2.8917   -0.8292    0.0000 C   0  0  0  0  0  0  0  0  0  0  0  0
    2.8917   -1.6542    0.0000 C   0  0  0  0  0  0  0  0  0  0  0  0
    2.1750   -2.0667    0.0000 N   0  0  0  0  0  0  0  0  0  0  0  0
    2.1750   -0.4167    0.0000 C   0  0  0  0  0  0  0  0  0  0  0  0
    1.4625   -0.8292    0.0000 C   0  0  0  0  0  0  0  0  0  0  0  0
    1.4625   -1.6542    0.0000 C   0  0  0  0  0  0  0  0  0  0  0  0
    3.6750   -1.9125    0.0000 O   0  0  0  0  0  0  0  0  0  0  0  0
    3.6750   -0.5792    0.0000 C   0  0  0  0  0  0  0  0  0  0  0  0
    4.1542   -1.2500    0.0000 C   0  0  0  0  0  0  0  0  0  0  0  0
    2.1750    0.4083    0.0000 O   0  0  0  0  0  0  0  0  0  0  0  0
    0.7500   -0.4167    0.0000 C   0  0  0  0  0  0  0  0  0  0  0  0
    0.7500   -2.0667    0.0000 C   0  0  0  0  0  0  0  0  0  0  0  0
    2.8875    0.8208    0.0000 C   0  0  0  0  0  0  0  0  0  0  0  0
    0.0292   -0.8292    0.0000 C   0  0  0  0  0  0  0  0  0  0  0  0
    0.0292   -1.6542    0.0000 C   0  0  0  0  0  0  0  0  0  0  0  0
  2  1  1  0
  3  2  2  0
  4  1  2  0
  5  4  1  0
  6  5  2  0
  7  2  1  0
  8  1  1  0
  9  8  2  0
 10  4  1  0
 11  5  1  0
 12  6  1  0
 13 10  1  0
 14 11  2  0
 15 14  1  0
  7  9  1  0
  6  3  1  0
 12 15  2  0
M  END
>  <ID>  (1786) 


>  <MOLENAME>  (1786) 
DICTAMNINE

>  <therap>  (1786) 
nan

>  <ref>  (1786) 
Chem & Ind 1956: 1091

>  <cas#>  (1786) 
484-29-7

>  <source>  (1786) 
Dictamnus albus and other Rutaceae

>  <status>  (1786) 
undetermined activity

>  <tradename>  (1786) 
nan

>  <SMILES>  (1786) 
COc1c2ccoc2nc2c1cccc2

>  <standardized_failed>  (1786) 
False

$$$$

     RDKit          2D

 32 37  0  0  0  0  0  0  0  0999 V2000
   -0.6458   -1.3500    0.0000 C   0  0  0  0  0  0  0  0  0  0  0  0
    2.0000   -0.8375    0.0000 C   0  0  0  0  0  0  0  0  0  0  0  0
    0.2375   -1.8292    0.0000 C   0  0  0  0  0  0  0  0  0  0  0  0
    2.0000    0.1833    0.0000 C   0  0  0  0  0  0  0  0  0  0  0  0
   -0.6458   -2.3667    0.0000 C   0  0  0  0  0  0  0  0  0  0  0  0
    2.0000   -1.8292    0.0000 O   0  0  0  0  0  0  0  0  0  0  0  0
    0.2542   -0.8375    0.0000 C   0  0  0  0  0  0  0  0  0  0  0  0
    1.1167   -1.3500    0.0000 C   0  0  0  0  0  0  0  0  0  0  0  0
    3.2375    1.4708    0.0000 C   0  0  0  0  0  0  0  0  0  0  0  0
    2.9542    0.4833    0.0000 C   0  0  0  0  0  0  0  0  0  0  0  0
    4.2000    1.7708    0.0000 C   0  0  0  0  0  0  0  0  0  0  0  0
    2.9542   -1.1375    0.0000 C   0  0  0  0  0  0  0  0  0  0  0  0
    4.2000    2.7708    0.0000 C   0  0  0  0  0  0  0  0  0  0  0  0
    1.1167    0.6625    0.0000 C   0  0  0  0  0  0  0  0  0  0  0  0
   -1.5000   -2.8500    0.0000 C   0  0  0  0  0  0  0  0  0  0  0  0
   -1.5000   -0.8375    0.0000 C   0  0  0  0  0  0  0  0  0  0  0  0
    0.2542    0.1833    0.0000 C   0  0  0  0  0  0  0  0  0  0  0  0
    3.2542    3.0958    0.0000 O   0  0  0  0  0  0  0  0  0  0  0  0
    3.5375   -0.3292    0.0000 C   0  0  0  0  0  0  0  0  0  0  0  0
    1.1167   -2.3375    0.0000 C   0  0  0  0  0  0  0  0  0  0  0  0
    0.2542   -2.8500    0.0000 C   0  0  0  0  0  0  0  0  0  0  0  0
    0.2375   -2.3375    0.0000 O   0  0  0  0  0  0  0  0  0  0  0  0
    2.6542    2.2833    0.0000 C   0  0  0  0  0  0  0  0  0  0  0  0
   -4.2708   -2.3167    0.0000 C   0  0  0  0  0  0  0  0  0  0  0  0
   -2.3833   -2.3375    0.0000 C   0  0  0  0  0  0  0  0  0  0  0  0
   -3.3833   -2.8792    0.0000 O   0  0  0  0  0  0  0  0  0  0  0  0
    5.0167    3.3625    0.0000 O   0  0  0  0  0  0  0  0  0  0  0  0
   -0.6458   -3.3667    0.0000 O   0  0  0  0  0  0  0  0  0  0  0  0
   -5.1583   -2.8292    0.0000 O   0  0  0  0  0  0  0  0  0  0  0  0
   -2.3833   -1.3500    0.0000 C   0  0  0  0  0  0  0  0  0  0  0  0
    2.0000    1.2125    0.0000 C   0  0  0  0  0  0  0  0  0  0  0  0
   -4.2708   -1.2875    0.0000 C   0  0  0  0  0  0  0  0  0  0  0  0
  2  8  1  0
  3  1  1  0
  4 14  1  0
  5  1  1  0
  6  3  1  0
  7  1  1  0
  8  7  1  0
  9 10  1  0
 10  4  1  0
 11  9  2  0
 12  2  1  0
 13 11  1  0
 14 17  1  0
 15  5  1  0
 16  1  1  0
 17  7  1  0
 18 23  1  0
 19 12  1  0
 20  8  1  0
 21  5  1  0
 22  3  2  0
 23  9  1  0
 24 26  1  0
 25 30  1  0
 26 25  1  0
 27 13  2  0
 28  5  1  0
 29 24  2  0
 30 16  1  0
 31  4  1  0
 32 24  1  0
 21 20  1  0
  6  2  1  0
 15 25  1  0
  2  4  1  0
 19 10  1  0
 13 18  1  0
M  END
>  <ID>  (1787) 


>  <MOLENAME>  (1787) 
STROPHANTHIDINIC ACID LACTONE ACETATE

>  <therap>  (1787) 
nan

>  <ref>  (1787) 
J Biol Chem 64: 123; 65: 491 (1925)

>  <cas#>  (1787) 
nan

>  <source>  (1787) 
semisynthetic

>  <status>  (1787) 
undetermined activity

>  <tradename>  (1787) 
nan

>  <SMILES>  (1787) 
CC(=O)OC1CCC23C(=O)OC45CCC(C6=CC(=O)OC6)C4(C)CCC2C5CCC3(O)C1

>  <standardized_failed>  (1787) 
False

$$$$

     RDKit          2D

 28 31  0  0  0  0  0  0  0  0999 V2000
    0.8292    0.6083    0.0000 C   0  0  0  0  0  0  0  0  0  0  0  0
   -1.3208   -0.6125    0.0000 C   0  0  0  0  0  0  0  0  0  0  0  0
    0.8167   -0.2167    0.0000 C   0  0  0  0  0  0  0  0  0  0  0  0
   -0.6083   -0.2000    0.0000 C   0  0  0  0  0  0  0  0  0  0  0  0
    0.1000   -0.6167    0.0000 C   0  0  0  0  0  0  0  0  0  0  0  0
    1.6125    0.8458    0.0000 C   0  0  0  0  0  0  0  0  0  0  0  0
   -1.3250   -1.4375    0.0000 C   0  0  0  0  0  0  0  0  0  0  0  0
    0.1167    1.0333    0.0000 C   0  0  0  0  0  0  0  0  0  0  0  0
   -0.6000    0.6250    0.0000 C   0  0  0  0  0  0  0  0  0  0  0  0
    1.5917   -0.4792    0.0000 C   0  0  0  0  0  0  0  0  0  0  0  0
   -2.0333   -0.1917    0.0000 C   0  0  0  0  0  0  0  0  0  0  0  0
    2.0875    0.1750    0.0000 C   0  0  0  0  0  0  0  0  0  0  0  0
    0.1042   -1.4417    0.0000 C   0  0  0  0  0  0  0  0  0  0  0  0
   -0.6125   -1.8500    0.0000 C   0  0  0  0  0  0  0  0  0  0  0  0
   -2.0333   -1.8417    0.0000 C   0  0  0  0  0  0  0  0  0  0  0  0
    2.0167    1.5625    0.0000 C   0  0  0  0  0  0  0  0  0  0  0  0
    0.8250    1.4333    0.0000 C   0  0  0  0  0  0  0  0  0  0  0  0
   -2.7458   -0.6125    0.0000 C   0  0  0  0  0  0  0  0  0  0  0  0
   -2.7458   -1.4375    0.0000 C   0  0  0  0  0  0  0  0  0  0  0  0
   -1.3250    0.2125    0.0000 C   0  0  0  0  0  0  0  0  0  0  0  0
   -3.4583   -1.8500    0.0000 O   0  0  0  0  0  0  0  0  0  0  0  0
    3.2625    0.8625    0.0000 C   0  0  0  0  0  0  0  0  0  0  0  0
    2.8417    1.5708    0.0000 C   0  0  0  0  0  0  0  0  0  0  0  0
    1.6000    2.2750    0.0000 C   0  0  0  0  0  0  0  0  0  0  0  0
    4.0875    0.8708    0.0000 C   0  0  0  0  0  0  0  0  0  0  0  0
    4.5042    0.1583    0.0000 C   0  0  0  0  0  0  0  0  0  0  0  0
    5.3292    0.1708    0.0000 C   0  0  0  0  0  0  0  0  0  0  0  0
    4.1000   -0.5542    0.0000 C   0  0  0  0  0  0  0  0  0  0  0  0
  2  4  1  0
  3  1  1  0
  4  9  1  0
  5  3  1  0
  6  1  1  0
  7  2  1  0
  8  1  1  0
  9  8  1  0
 10  3  1  0
 11  2  1  0
 12  6  1  0
 13  5  1  0
 14 13  1  0
  7 15  1  1
 16  6  1  0
  1 17  1  1
 18 11  1  0
 19 18  1  0
  2 20  1  1
 19 21  1  1
 22 23  1  0
 23 16  1  0
 24 16  1  0
 25 22  1  0
 26 25  1  0
 27 26  1  0
 28 26  1  0
 12 10  1  0
  4  5  1  0
 14  7  1  0
 19 15  1  0
M  END
>  <ID>  (1788) 


>  <MOLENAME>  (1788) 
5alpha-CHOLESTANOL

>  <therap>  (1788) 
nan

>  <ref>  (1788) 
nan

>  <cas#>  (1788) 
80-97-7

>  <source>  (1788) 
eggs, faces, gall stones, adrenal tissue

>  <status>  (1788) 
undetermined activity

>  <tradename>  (1788) 
nan

>  <SMILES>  (1788) 
CC(C)CCCC(C)C1CCC2C3CC[C@H]4C[C@@H](O)CC[C@]4(C)C3CC[C@]12C

>  <standardized_failed>  (1788) 
False

$$$$

     RDKit          2D

 39 43  0  0  0  0  0  0  0  0999 V2000
    3.5542   -1.4667    0.0000 C   0  0  0  0  0  0  0  0  0  0  0  0
    4.2667   -1.0542    0.0000 C   0  0  0  0  0  0  0  0  0  0  0  0
    2.8417   -1.0375    0.0000 C   0  0  0  0  0  0  0  0  0  0  0  0
    4.2792   -0.2292    0.0000 C   0  0  0  0  0  0  0  0  0  0  0  0
    2.1292   -1.4667    0.0000 C   0  0  0  0  0  0  0  0  0  0  0  0
    2.1292   -2.2917    0.0000 C   0  0  0  0  0  0  0  0  0  0  0  0
    5.0000    0.1833    0.0000 C   0  0  0  0  0  0  0  0  0  0  0  0
    0.7000   -2.2917    0.0000 C   0  0  0  0  0  0  0  0  0  0  0  0
    0.7000   -1.4667    0.0000 C   0  0  0  0  0  0  0  0  0  0  0  0
    1.4125   -2.7042    0.0000 C   0  0  0  0  0  0  0  0  0  0  0  0
    3.5625   -2.2917    0.0000 C   0  0  0  0  0  0  0  0  0  0  0  0
    1.4125   -1.0375    0.0000 C   0  0  0  0  0  0  0  0  0  0  0  0
    5.7417    1.4083    0.0000 C   0  0  0  0  0  0  0  0  0  0  0  0
    5.0042    1.0083    0.0000 C   0  0  0  0  0  0  0  0  0  0  0  0
    5.7125   -0.2542    0.0000 C   0  0  0  0  0  0  0  0  0  0  0  0
    5.7542    2.2458    0.0000 C   0  0  0  0  0  0  0  0  0  0  0  0
    2.8417   -0.2167    0.0000 C   0  0  0  0  0  0  0  0  0  0  0  0
    3.5625    0.1833    0.0000 C   0  0  0  0  0  0  0  0  0  0  0  0
    2.8417   -2.7042    0.0000 C   0  0  0  0  0  0  0  0  0  0  0  0
    4.9792   -1.4750    0.0000 C   0  0  0  0  0  0  0  0  0  0  0  0
   -0.0208   -2.7042    0.0000 O   0  0  0  0  0  0  0  0  0  0  0  0
   -0.0208   -1.0542    0.0000 O   0  0  0  0  0  0  0  0  0  0  0  0
   -0.7375   -2.2875    0.0000 C   0  0  0  0  0  0  0  0  0  0  0  0
   -0.0250   -0.2292    0.0000 C   0  0  0  0  0  0  0  0  0  0  0  0
    5.7000   -1.0792    0.0000 C   0  0  0  0  0  0  0  0  0  0  0  0
    6.4542    0.9833    0.0000 C   0  0  0  0  0  0  0  0  0  0  0  0
    6.4375    0.1458    0.0000 C   0  0  0  0  0  0  0  0  0  0  0  0
    5.0417    2.6708    0.0000 O   0  0  0  0  0  0  0  0  0  0  0  0
    0.6875    0.1875    0.0000 O   0  0  0  0  0  0  0  0  0  0  0  0
   -0.7333   -1.4625    0.0000 O   0  0  0  0  0  0  0  0  0  0  0  0
    4.2542   -1.8792    0.0000 C   0  0  0  0  0  0  0  0  0  0  0  0
    2.1167   -0.6292    0.0000 C   0  0  0  0  0  0  0  0  0  0  0  0
    4.2667    0.6083    0.0000 C   0  0  0  0  0  0  0  0  0  0  0  0
    6.4792    2.6458    0.0000 O   0  0  0  0  0  0  0  0  0  0  0  0
    1.4042   -3.5292    0.0000 C   0  0  0  0  0  0  0  0  0  0  0  0
    5.0167    1.8208    0.0000 C   0  0  0  0  0  0  0  0  0  0  0  0
    6.2917   -0.8417    0.0000 C   0  0  0  0  0  0  0  0  0  0  0  0
   -1.4500   -2.6917    0.0000 C   0  0  0  0  0  0  0  0  0  0  0  0
   -0.7458    0.1833    0.0000 C   0  0  0  0  0  0  0  0  0  0  0  0
  2  1  1  0
  3  1  1  0
  4  2  1  0
  5  3  1  0
  6 19  1  0
  7  4  1  0
  8 10  2  0
  9 12  2  0
 10  6  1  0
 11  1  2  0
 12  5  1  0
 13 14  1  0
 14  7  1  0
 15 25  1  0
 13 16  1  0
 17  3  1  0
 18 17  1  0
 19 11  1  0
 20  2  1  0
 21  8  1  0
 22  9  1  0
 23 21  1  0
 24 22  1  0
 25 20  1  0
 26 27  1  0
 27 15  1  0
 28 16  2  0
 29 24  2  0
 30 23  2  0
  2 31  1  1
  3 32  1  1
  4 33  1  6
 34 16  1  0
 35 10  1  0
 13 36  1  1
 15 37  1  1
 38 23  1  0
 39 24  1  0
  6  5  2  0
  4 18  1  0
  9  8  1  0
 15  7  1  0
 13 26  1  0
M  END
>  <ID>  (1789) 


>  <MOLENAME>  (1789) 
DIHYDROCELASTRYL DIACETATE

>  <therap>  (1789) 
chaperone stimulant

>  <ref>  (1789) 
J Org Chem 30: 1729 (1965); J Biol Chem 279:56053 (2004);

>  <cas#>  (1789) 
nan

>  <source>  (1789) 
celastrol derivative

>  <status>  (1789) 
undetermined activity

>  <tradename>  (1789) 
nan

>  <SMILES>  (1789) 
CC(=O)Oc1cc2c(CC=C3[C@@]4(C)CC[C@@]5(C)CC[C@@](C)(C(=O)O)CC5[C@]4(C)CC[C@]32C)c(C)c1OC(C)=O

>  <standardized_failed>  (1789) 
False

$$$$

     RDKit          2D

 33 38  0  0  0  0  0  0  0  0999 V2000
    4.0042   -0.7250    0.0000 C   0  0  0  0  0  0  0  0  0  0  0  0
    4.7167   -1.1375    0.0000 C   0  0  0  0  0  0  0  0  0  0  0  0
    3.2917   -1.1375    0.0000 C   0  0  0  0  0  0  0  0  0  0  0  0
    4.0042    0.1000    0.0000 C   0  0  0  0  0  0  0  0  0  0  0  0
    4.0042   -1.5542    0.0000 O   0  0  0  0  0  0  0  0  0  0  0  0
    1.8542   -1.1375    0.0000 C   0  0  0  0  0  0  0  0  0  0  0  0
    2.5750   -0.7250    0.0000 C   0  0  0  0  0  0  0  0  0  0  0  0
    5.4292   -0.7250    0.0000 C   0  0  0  0  0  0  0  0  0  0  0  0
    1.8542   -1.9667    0.0000 C   0  0  0  0  0  0  0  0  0  0  0  0
    4.7167    0.5125    0.0000 C   0  0  0  0  0  0  0  0  0  0  0  0
    3.2917   -1.9667    0.0000 C   0  0  0  0  0  0  0  0  0  0  0  0
    5.4292    0.1000    0.0000 O   0  0  0  0  0  0  0  0  0  0  0  0
    1.1417   -2.3792    0.0000 C   0  0  0  0  0  0  0  0  0  0  0  0
    1.1417   -0.7250    0.0000 C   0  0  0  0  0  0  0  0  0  0  0  0
    2.5792   -2.3792    0.0000 C   0  0  0  0  0  0  0  0  0  0  0  0
    4.7167    1.3458    0.0000 C   0  0  0  0  0  0  0  0  0  0  0  0
    3.2917    0.5125    0.0000 C   0  0  0  0  0  0  0  0  0  0  0  0
    0.4292   -1.1375    0.0000 C   0  0  0  0  0  0  0  0  0  0  0  0
    0.4292   -1.9667    0.0000 C   0  0  0  0  0  0  0  0  0  0  0  0
    2.5750    0.1000    0.0000 C   0  0  0  0  0  0  0  0  0  0  0  0
    6.1542   -1.1375    0.0000 O   0  0  0  0  0  0  0  0  0  0  0  0
    5.2917    1.9208    0.0000 C   0  0  0  0  0  0  0  0  0  0  0  0
    4.0125   -2.3917    0.0000 O   0  0  0  0  0  0  0  0  0  0  0  0
    3.9917    1.7208    0.0000 C   0  0  0  0  0  0  0  0  0  0  0  0
    4.9167    2.6458    0.0000 O   0  0  0  0  0  0  0  0  0  0  0  0
    4.1250    2.5333    0.0000 C   0  0  0  0  0  0  0  0  0  0  0  0
    3.3000   -0.3417    0.0000 C   0  0  0  0  0  0  0  0  0  0  0  0
    4.0042    0.9333    0.0000 C   0  0  0  0  0  0  0  0  0  0  0  0
    1.1417    0.1000    0.0000 O   0  0  0  0  0  0  0  0  0  0  0  0
    1.8667   -0.2792    0.0000 C   0  0  0  0  0  0  0  0  0  0  0  0
   -0.2958   -2.3875    0.0000 O   0  0  0  0  0  0  0  0  0  0  0  0
    1.5792   -3.0542    0.0000 C   0  0  0  0  0  0  0  0  0  0  0  0
    0.7292   -3.1000    0.0000 C   0  0  0  0  0  0  0  0  0  0  0  0
  2  1  1  0
  3  1  1  0
  4  1  1  0
  5  1  1  0
  6  7  1  0
  7  3  1  0
  8  2  1  0
  9 15  1  0
 10  4  1  0
 11  3  1  0
 10 12  1  6
 13  9  1  0
 14  6  1  0
 15 11  1  0
 10 16  1  0
 17  4  1  0
 18 14  1  0
 19 13  1  0
 20 17  1  0
 21  8  2  0
 22 16  2  0
 23 11  2  0
 24 16  1  0
 25 22  1  0
 26 24  2  0
  3 27  1  1
  4 28  1  6
 14 29  1  6
  6 30  1  1
 19 31  1  6
 32 13  1  0
 33 13  1  0
  2  5  1  0
  7 20  1  0
 12  8  1  0
  9  6  1  0
 26 25  1  0
 18 19  1  0
M  END
>  <ID>  (1790) 


>  <MOLENAME>  (1790) 
1.3-DIDEACETYL-7-DEACETOXY-7-OXOKHIVORIN

>  <therap>  (1790) 
nan

>  <ref>  (1790) 
nan

>  <cas#>  (1790) 
nan

>  <source>  (1790) 
Meliaceae spp

>  <status>  (1790) 
undetermined activity

>  <tradename>  (1790) 
nan

>  <SMILES>  (1790) 
CC1(C)C2CC(=O)[C@]3(C)C(CC[C@@]4(C)[C@H](c5cocc5)OC(=O)C5OC543)[C@@]2(C)[C@@H](O)C[C@H]1O

>  <standardized_failed>  (1790) 
False

$$$$

     RDKit          2D

 27 29  0  0  0  0  0  0  0  0999 V2000
    6.0792   -4.6250    0.0000 N   0  0  0  0  0  0  0  0  0  0  0  0
    6.0792   -3.8000    0.0000 C   0  0  0  0  0  0  0  0  0  0  0  0
    4.6625   -4.6250    0.0000 C   0  0  0  0  0  0  0  0  0  0  0  0
    6.7917   -3.3792    0.0000 C   0  0  0  0  0  0  0  0  0  0  0  0
    5.3667   -5.0375    0.0000 C   0  0  0  0  0  0  0  0  0  0  0  0
    5.3667   -3.3875    0.0000 C   0  0  0  0  0  0  0  0  0  0  0  0
    7.5125   -3.8000    0.0000 C   0  0  0  0  0  0  0  0  0  0  0  0
    3.9417   -5.0375    0.0000 C   0  0  0  0  0  0  0  0  0  0  0  0
    4.6542   -3.8000    0.0000 C   0  0  0  0  0  0  0  0  0  0  0  0
    6.8000   -2.5500    0.0000 C   0  0  0  0  0  0  0  0  0  0  0  0
    7.5250   -2.1417    0.0000 C   0  0  0  0  0  0  0  0  0  0  0  0
    8.2292   -3.3917    0.0000 C   0  0  0  0  0  0  0  0  0  0  0  0
    8.2417   -2.5625    0.0000 C   0  0  0  0  0  0  0  0  0  0  0  0
    6.7917   -5.0375    0.0000 C   0  0  0  0  0  0  0  0  0  0  0  0
    3.2375   -4.6250    0.0000 C   0  0  0  0  0  0  0  0  0  0  0  0
    7.5125   -4.6250    0.0000 C   0  0  0  0  0  0  0  0  0  0  0  0
    3.9417   -3.3875    0.0000 C   0  0  0  0  0  0  0  0  0  0  0  0
    6.4792   -5.8417    0.0000 Cl  0  0  0  0  0  0  0  0  0  0  0  0
    3.2375   -3.8000    0.0000 C   0  0  0  0  0  0  0  0  0  0  0  0
    3.9417   -5.8625    0.0000 O   0  0  0  0  0  0  0  0  0  0  0  0
    7.5292   -1.3167    0.0000 O   0  0  0  0  0  0  0  0  0  0  0  0
    8.9542   -2.1542    0.0000 O   0  0  0  0  0  0  0  0  0  0  0  0
    2.5167   -5.0375    0.0000 O   0  0  0  0  0  0  0  0  0  0  0  0
    3.2292   -6.2667    0.0000 C   0  0  0  0  0  0  0  0  0  0  0  0
    8.2417   -0.9125    0.0000 C   0  0  0  0  0  0  0  0  0  0  0  0
    9.6667   -2.5750    0.0000 C   0  0  0  0  0  0  0  0  0  0  0  0
    1.8042   -4.6250    0.0000 C   0  0  0  0  0  0  0  0  0  0  0  0
  2  1  2  0
  3  5  2  0
  4  2  1  0
  5  1  1  0
  6  2  1  0
  7 16  1  0
  8  3  1  0
  9  3  1  0
 10  4  2  0
 11 10  1  0
 12  7  2  0
 13 12  1  0
 14  1  1  0
 15  8  2  0
 16 14  1  0
 17  9  1  0
 19 17  2  0
 20  8  1  0
 21 11  1  0
 22 13  1  0
 23 15  1  0
 24 20  1  0
 25 21  1  0
 26 22  1  0
 27 23  1  0
  7  4  1  0
  9  6  2  0
 11 13  2  0
 15 19  1  0
M  CHG  2   1   1  18  -1
M  END
>  <ID>  (1791) 


>  <MOLENAME>  (1791) 
PALMATINE CHLORIDE

>  <therap>  (1791) 
antibacterial, antimalarial, uterine contractant

>  <ref>  (1791) 
J Nat Prod 28: 73 (1965); Can J Chem 58: 2770 (1980)

>  <cas#>  (1791) 
10605-02-4

>  <source>  (1791) 
Jateorhiza palmata (Calumba root)

>  <status>  (1791) 
experimental

>  <tradename>  (1791) 
nan

>  <SMILES>  (1791) 
COc1c(OC)cc2c(c1)CC[n+]1c-2cc2ccc(OC)c(OC)c2c1

>  <standardized_failed>  (1791) 
False

$$$$

     RDKit          2D

 41 46  0  0  0  0  0  0  0  0999 V2000
    7.3667   -3.1417    0.0000 C   0  0  0  0  0  0  0  0  0  0  0  0
    8.3375   -3.4292    0.0000 C   0  0  0  0  0  0  0  0  0  0  0  0
    6.5167   -3.6292    0.0000 C   0  0  0  0  0  0  0  0  0  0  0  0
    7.5167   -4.1542    0.0000 O   0  0  0  0  0  0  0  0  0  0  0  0
    7.3667   -2.1417    0.0000 C   0  0  0  0  0  0  0  0  0  0  0  0
    4.7875   -3.6292    0.0000 C   0  0  0  0  0  0  0  0  0  0  0  0
    8.8917   -2.6542    0.0000 C   0  0  0  0  0  0  0  0  0  0  0  0
    5.6375   -3.1417    0.0000 C   0  0  0  0  0  0  0  0  0  0  0  0
    4.7875   -4.6042    0.0000 C   0  0  0  0  0  0  0  0  0  0  0  0
    8.3042   -1.8292    0.0000 C   0  0  0  0  0  0  0  0  0  0  0  0
    6.5167   -4.6167    0.0000 C   0  0  0  0  0  0  0  0  0  0  0  0
    3.9542   -5.1042    0.0000 C   0  0  0  0  0  0  0  0  0  0  0  0
    3.9375   -3.1417    0.0000 C   0  0  0  0  0  0  0  0  0  0  0  0
    3.0875   -4.6167    0.0000 C   0  0  0  0  0  0  0  0  0  0  0  0
    5.6667   -5.1042    0.0000 C   0  0  0  0  0  0  0  0  0  0  0  0
    3.0875   -3.6292    0.0000 C   0  0  0  0  0  0  0  0  0  0  0  0
    8.3000   -1.0042    0.0000 C   0  0  0  0  0  0  0  0  0  0  0  0
    6.5167   -1.6292    0.0000 C   0  0  0  0  0  0  0  0  0  0  0  0
    5.6375   -2.1417    0.0000 C   0  0  0  0  0  0  0  0  0  0  0  0
    7.3917   -5.1417    0.0000 O   0  0  0  0  0  0  0  0  0  0  0  0
    3.9375   -2.1542    0.0000 O   0  0  0  0  0  0  0  0  0  0  0  0
    2.2375   -5.1042    0.0000 O   0  0  0  0  0  0  0  0  0  0  0  0
    7.3917   -6.1292    0.0000 C   0  0  0  0  0  0  0  0  0  0  0  0
    1.4042   -4.6417    0.0000 C   0  0  0  0  0  0  0  0  0  0  0  0
    3.1042   -1.6792    0.0000 C   0  0  0  0  0  0  0  0  0  0  0  0
    9.7417   -2.6542    0.0000 O   0  0  0  0  0  0  0  0  0  0  0  0
    8.5000    0.5958    0.0000 O   0  0  0  0  0  0  0  0  0  0  0  0
    8.9542   -0.2792    0.0000 C   0  0  0  0  0  0  0  0  0  0  0  0
    7.4000   -0.5667    0.0000 C   0  0  0  0  0  0  0  0  0  0  0  0
    7.5250    0.4083    0.0000 C   0  0  0  0  0  0  0  0  0  0  0  0
    0.5667   -5.1042    0.0000 O   0  0  0  0  0  0  0  0  0  0  0  0
    6.5167   -6.6167    0.0000 O   0  0  0  0  0  0  0  0  0  0  0  0
    3.1042   -0.7167    0.0000 O   0  0  0  0  0  0  0  0  0  0  0  0
    6.5167   -2.7417    0.0000 C   0  0  0  0  0  0  0  0  0  0  0  0
    7.3667   -1.1167    0.0000 C   0  0  0  0  0  0  0  0  0  0  0  0
    4.7875   -2.7042    0.0000 C   0  0  0  0  0  0  0  0  0  0  0  0
    3.1042   -5.6542    0.0000 C   0  0  0  0  0  0  0  0  0  0  0  0
    4.8167   -5.6167    0.0000 C   0  0  0  0  0  0  0  0  0  0  0  0
    8.2042   -6.6667    0.0000 C   0  0  0  0  0  0  0  0  0  0  0  0
    1.3917   -3.6042    0.0000 C   0  0  0  0  0  0  0  0  0  0  0  0
    2.2167   -2.1917    0.0000 C   0  0  0  0  0  0  0  0  0  0  0  0
  2  1  1  0
  3  1  1  0
  1  4  1  1
  5  1  1  0
  6  8  1  0
  7  2  1  0
  8  3  1  0
  9 15  1  0
 10  5  1  0
 11  3  1  0
 12  9  1  0
 13  6  1  0
 14 12  1  0
 15 11  1  0
 16 13  1  0
 10 17  1  6
 18  5  1  0
 19 18  1  0
 11 20  1  6
 13 21  1  6
 14 22  1  6
 23 20  1  0
 24 22  1  0
 25 21  1  0
 26  7  2  0
 27 28  1  0
 28 17  2  0
 29 17  1  0
 30 29  2  0
 31 24  2  0
 32 23  2  0
 33 25  2  0
  3 34  1  1
  5 35  1  6
  6 36  1  1
 37 12  1  0
 38 12  1  0
 39 23  1  0
 40 24  1  0
 41 25  1  0
  2  4  1  1
 10  7  1  0
  8 19  1  0
  9  6  1  0
 30 27  1  0
 16 14  1  0
M  END
>  <ID>  (1792) 


>  <MOLENAME>  (1792) 
KHAYANTHONE

>  <therap>  (1792) 
nan

>  <ref>  (1792) 
Chem Commun 1967:379

>  <cas#>  (1792) 
25279-68-9

>  <source>  (1792) 
Khaya species

>  <status>  (1792) 
undetermined activity

>  <tradename>  (1792) 
nan

>  <SMILES>  (1792) 
CC(=O)O[C@H]1C[C@@H](OC(C)=O)C(C)(C)C2C[C@@H](OC(C)=O)[C@]3(C)C(CC[C@@]4(C)[C@H](c5cocc5)C(=O)[C@H]5O[C@]543)[C@]21C

>  <standardized_failed>  (1792) 
False

$$$$

     RDKit          2D

 30 35  0  0  0  0  0  0  0  0999 V2000
    5.4417   -5.3875    0.0000 C   0  0  0  0  0  0  0  0  0  0  0  0
    7.5625   -4.7042    0.0000 C   0  0  0  0  0  0  0  0  0  0  0  0
    5.4417   -6.2375    0.0000 C   0  0  0  0  0  0  0  0  0  0  0  0
    3.2167   -6.6750    0.0000 C   0  0  0  0  0  0  0  0  0  0  0  0
    6.2625   -5.1125    0.0000 C   0  0  0  0  0  0  0  0  0  0  0  0
    7.5667   -5.5542    0.0000 O   0  0  0  0  0  0  0  0  0  0  0  0
    3.2167   -7.5250    0.0000 C   0  0  0  0  0  0  0  0  0  0  0  0
    6.7500   -5.8250    0.0000 C   0  0  0  0  0  0  0  0  0  0  0  0
    3.9625   -6.2375    0.0000 C   0  0  0  0  0  0  0  0  0  0  0  0
    4.7000   -6.6750    0.0000 C   0  0  0  0  0  0  0  0  0  0  0  0
    6.2625   -6.4917    0.0000 C   0  0  0  0  0  0  0  0  0  0  0  0
    8.0750   -3.7792    0.0000 N   0  0  0  0  0  0  0  0  0  0  0  0
    6.7917   -4.4417    0.0000 C   0  0  0  0  0  0  0  0  0  0  0  0
    4.7000   -4.9417    0.0000 C   0  0  0  0  0  0  0  0  0  0  0  0
    3.9625   -7.9625    0.0000 C   0  0  0  0  0  0  0  0  0  0  0  0
    4.7000   -7.5250    0.0000 C   0  0  0  0  0  0  0  0  0  0  0  0
    3.9625   -5.3875    0.0000 C   0  0  0  0  0  0  0  0  0  0  0  0
    2.4667   -6.2375    0.0000 C   0  0  0  0  0  0  0  0  0  0  0  0
    2.4667   -7.9625    0.0000 C   0  0  0  0  0  0  0  0  0  0  0  0
    8.2667   -4.4250    0.0000 C   0  0  0  0  0  0  0  0  0  0  0  0
    9.0125   -4.3417    0.0000 C   0  0  0  0  0  0  0  0  0  0  0  0
    5.4417   -4.5375    0.0000 C   0  0  0  0  0  0  0  0  0  0  0  0
    1.7292   -6.6750    0.0000 C   0  0  0  0  0  0  0  0  0  0  0  0
    1.7292   -7.5250    0.0000 C   0  0  0  0  0  0  0  0  0  0  0  0
    3.2167   -5.8250    0.0000 C   0  0  0  0  0  0  0  0  0  0  0  0
    9.1292   -4.7042    0.0000 C   0  0  0  0  0  0  0  0  0  0  0  0
    9.9792   -3.8042    0.0000 C   0  0  0  0  0  0  0  0  0  0  0  0
    0.9917   -7.9625    0.0000 O   0  0  0  0  0  0  0  0  0  0  0  0
    6.5625   -3.5917    0.0000 C   0  0  0  0  0  0  0  0  0  0  0  0
   10.7292   -4.4042    0.0000 C   0  0  0  0  0  0  0  0  0  0  0  0
  2 13  1  0
  3  1  1  0
  4  9  1  0
  5  1  1  0
  8  6  1  0
  7  4  1  0
  8  5  1  0
  9 17  1  0
  3 10  1  0
  3 11  1  1
  2 12  1  0
 13  5  1  0
 14  1  1  0
 15 16  1  0
 16 10  1  0
 17 14  1  0
 18  4  1  0
 19  7  1  0
  2 20  1  1
 21 12  1  0
  1 22  1  1
 23 18  1  0
 24 23  1  0
  4 25  1  1
 26 20  1  0
 27 26  1  0
 24 28  1  1
 13 29  1  6
 27 30  1  6
  8 11  1  1
  9 10  1  0
  6  2  1  0
 15  7  2  0
 27 21  1  0
 24 19  1  0
M  END
>  <ID>  (1793) 


>  <MOLENAME>  (1793) 
SOLASODINE

>  <therap>  (1793) 
antineoplastic, antiinflammatory

>  <ref>  (1793) 
J Am Chem Soc 76: 4245 (1954); Alkaloids 19: 81 (1981)

>  <cas#>  (1793) 
126-17-0

>  <source>  (1793) 
numerous Solanum spp

>  <status>  (1793) 
experimental

>  <tradename>  (1793) 
nan

>  <SMILES>  (1793) 
C[C@H]1C2[C@H](C[C@H]3C4CC=C5C[C@@H](O)CC[C@]5(C)C4CC[C@]23C)O[C@]12CC[C@@H](C)CN2

>  <standardized_failed>  (1793) 
False

$$$$

     RDKit          2D

 26 27  0  0  0  0  0  0  0  0999 V2000
    2.3625   -0.6250    0.0000 C   0  0  0  0  0  0  0  0  0  0  0  0
    2.3667   -1.4500    0.0000 C   0  0  0  0  0  0  0  0  0  0  0  0
    3.7917   -1.4417    0.0000 C   0  0  0  0  0  0  0  0  0  0  0  0
    3.0792   -1.8542    0.0000 O   0  0  0  0  0  0  0  0  0  0  0  0
    4.5042   -1.8542    0.0000 C   0  0  0  0  0  0  0  0  0  0  0  0
   -0.4833   -1.4542    0.0000 C   0  0  0  0  0  0  0  0  0  0  0  0
    7.3500   -1.8542    0.0000 C   0  0  0  0  0  0  0  0  0  0  0  0
    5.2167   -1.4417    0.0000 C   0  0  0  0  0  0  0  0  0  0  0  0
    1.6542   -1.8625    0.0000 C   0  0  0  0  0  0  0  0  0  0  0  0
   -0.4833   -0.6375    0.0000 C   0  0  0  0  0  0  0  0  0  0  0  0
    7.3500   -2.6792    0.0000 C   0  0  0  0  0  0  0  0  0  0  0  0
    0.2250   -1.8667    0.0000 C   0  0  0  0  0  0  0  0  0  0  0  0
    0.9375   -1.4542    0.0000 C   0  0  0  0  0  0  0  0  0  0  0  0
    6.6417   -1.4417    0.0000 C   0  0  0  0  0  0  0  0  0  0  0  0
    1.6417   -0.2125    0.0000 O   0  0  0  0  0  0  0  0  0  0  0  0
    3.7875   -0.6167    0.0000 O   0  0  0  0  0  0  0  0  0  0  0  0
    5.9292   -1.8500    0.0000 C   0  0  0  0  0  0  0  0  0  0  0  0
    0.2167   -0.2292    0.0000 C   0  0  0  0  0  0  0  0  0  0  0  0
    6.6292   -3.0917    0.0000 C   0  0  0  0  0  0  0  0  0  0  0  0
    3.0750   -0.2042    0.0000 O   0  0  0  0  0  0  0  0  0  0  0  0
    0.9375   -0.6375    0.0000 C   0  0  0  0  0  0  0  0  0  0  0  0
   -1.1958   -1.8667    0.0000 O   0  0  0  0  0  0  0  0  0  0  0  0
    8.0667   -1.4292    0.0000 O   0  0  0  0  0  0  0  0  0  0  0  0
    5.9250   -2.6750    0.0000 C   0  0  0  0  0  0  0  0  0  0  0  0
    8.0625   -3.0917    0.0000 O   0  0  0  0  0  0  0  0  0  0  0  0
   -1.2000   -0.2292    0.0000 O   0  0  0  0  0  0  0  0  0  0  0  0
  2  1  1  0
  3  4  1  0
  4  2  1  0
  5  3  1  0
  6 12  2  0
  7 14  2  0
  8  5  2  0
  9  2  1  0
 10 18  2  0
 11 19  2  0
 12 13  1  0
 13  9  1  0
 14 17  1  0
 15  1  2  0
 16  3  2  0
 17  8  1  0
 18 21  1  0
 19 24  1  0
 20  1  1  0
 21 13  2  0
 22  6  1  0
 23  7  1  0
 24 17  2  0
 25 11  1  0
 26 10  1  0
  6 10  1  0
 11  7  1  0
M  END
>  <ID>  (1794) 


>  <MOLENAME>  (1794) 
ROSMARINIC ACID

>  <therap>  (1794) 
antiinflammatory, antithrombotic, antiplatelet, cytostatic, antiviral

>  <ref>  (1794) 
J Org Chem 40: 1804 (1975); 41: 449 (1976); Drugs of the Future 10: 756 (1985)

>  <cas#>  (1794) 
537-15-5

>  <source>  (1794) 
Rosmarinus officinalis, Melissa officinalis, Momordica balsamina, Mentha piperita, Salvia officinalis, Teucrium scorodonia, Sanicula europaea, Coleus blumei, Thymus spp

>  <status>  (1794) 
experimental

>  <tradename>  (1794) 
nan

>  <SMILES>  (1794) 
O=C(/C=C/c1ccc(O)c(O)c1)OC(Cc1ccc(O)c(O)c1)C(=O)O

>  <standardized_failed>  (1794) 
False

$$$$

     RDKit          2D

 33 35  0  0  0  0  0  0  0  0999 V2000
   -0.5833    0.4500    0.0000 C   0  0  0  0  0  0  0  0  0  0  0  0
   -0.1000    0.9625    0.0000 C   0  0  0  0  0  0  0  0  0  0  0  0
    2.0167   -0.6875    0.0000 C   0  0  0  0  0  0  0  0  0  0  0  0
    0.8375   -0.3292    0.0000 C   0  0  0  0  0  0  0  0  0  0  0  0
    0.1792   -0.6000    0.0000 O   0  0  0  0  0  0  0  0  0  0  0  0
   -0.4625   -0.2667    0.0000 C   0  0  0  0  0  0  0  0  0  0  0  0
    1.3167   -0.8375    0.0000 C   0  0  0  0  0  0  0  0  0  0  0  0
   -1.2625    0.6958    0.0000 C   0  0  0  0  0  0  0  0  0  0  0  0
    1.0375    0.3333    0.0000 C   0  0  0  0  0  0  0  0  0  0  0  0
    0.6167    0.9333    0.0000 O   0  0  0  0  0  0  0  0  0  0  0  0
    2.1917   -0.0292    0.0000 C   0  0  0  0  0  0  0  0  0  0  0  0
    1.7167    0.4833    0.0000 C   0  0  0  0  0  0  0  0  0  0  0  0
    2.5167   -1.2000    0.0000 C   0  0  0  0  0  0  0  0  0  0  0  0
   -1.0208   -0.7167    0.0000 C   0  0  0  0  0  0  0  0  0  0  0  0
   -1.3833    1.4125    0.0000 C   0  0  0  0  0  0  0  0  0  0  0  0
   -1.8208    0.2458    0.0000 C   0  0  0  0  0  0  0  0  0  0  0  0
   -0.3625    1.6500    0.0000 O   0  0  0  0  0  0  0  0  0  0  0  0
   -1.7000   -0.4792    0.0000 C   0  0  0  0  0  0  0  0  0  0  0  0
    3.2167   -1.0167    0.0000 O   0  0  0  0  0  0  0  0  0  0  0  0
   -0.8208    1.8625    0.0000 O   0  0  0  0  0  0  0  0  0  0  0  0
    2.9167    0.1208    0.0000 O   0  0  0  0  0  0  0  0  0  0  0  0
    2.3375   -1.8875    0.0000 O   0  0  0  0  0  0  0  0  0  0  0  0
    1.1167   -1.5292    0.0000 C   0  0  0  0  0  0  0  0  0  0  0  0
   -2.2458   -0.9542    0.0000 O   0  0  0  0  0  0  0  0  0  0  0  0
   -2.0625    1.6833    0.0000 C   0  0  0  0  0  0  0  0  0  0  0  0
   -2.1000   -1.6500    0.0000 C   0  0  0  0  0  0  0  0  0  0  0  0
    0.4375   -1.7042    0.0000 C   0  0  0  0  0  0  0  0  0  0  0  0
   -2.1833    2.4000    0.0000 C   0  0  0  0  0  0  0  0  0  0  0  0
   -2.8625    2.6458    0.0000 C   0  0  0  0  0  0  0  0  0  0  0  0
   -0.4833   -2.5500    0.0000 C   0  0  0  0  0  0  0  0  0  0  0  0
    0.2167   -2.4000    0.0000 C   0  0  0  0  0  0  0  0  0  0  0  0
   -2.9833    3.3625    0.0000 C   0  0  0  0  0  0  0  0  0  0  0  0
   -0.7000   -3.2375    0.0000 C   0  0  0  0  0  0  0  0  0  0  0  0
  2  1  1  0
  3  7  1  0
  4  5  1  0
  5  6  1  0
  6  1  2  0
  7  4  2  0
  8  1  1  0
  9 10  1  0
 10  2  1  0
 11 12  1  0
 12  9  2  0
 13  3  1  0
 14  6  1  0
 15  8  1  0
 16  8  2  0
 17  2  2  0
 18 16  1  0
 19 13  2  0
 20 15  2  0
 21 11  1  0
 22 13  1  0
 23  7  1  0
 24 18  1  0
 25 15  1  0
 26 24  1  0
 27 23  1  0
 28 25  1  0
 29 28  1  0
 30 31  1  0
 31 27  1  0
 32 29  1  0
 33 30  1  0
 14 18  2  0
  4  9  1  0
  3 11  2  0
M  END
>  <ID>  (1795) 


>  <MOLENAME>  (1795) 
LOBARIC ACID

>  <therap>  (1795) 
nan

>  <ref>  (1795) 
Z Naturforsch 21b: 714 (1966)

>  <cas#>  (1795) 
nan

>  <source>  (1795) 
lichens of the genus Stereocaulon and others

>  <status>  (1795) 
undetermined activity

>  <tradename>  (1795) 
nan

>  <SMILES>  (1795) 
CCCCCc1c2Oc3c(C(=O)Oc2cc(O)c1C(=O)O)c(C(=O)CCCC)cc(OC)c3

>  <standardized_failed>  (1795) 
False

$$$$

     RDKit          2D

 21 24  0  0  0  0  0  0  0  0999 V2000
    3.2042   -2.4625    0.0000 C   0  0  0  0  0  0  0  0  0  0  0  0
    3.3750   -3.2750    0.0000 O   0  0  0  0  0  0  0  0  0  0  0  0
    3.9167   -2.0500    0.0000 C   0  0  0  0  0  0  0  0  0  0  0  0
    4.1917   -3.3542    0.0000 C   0  0  0  0  0  0  0  0  0  0  0  0
    2.4792   -2.0500    0.0000 C   0  0  0  0  0  0  0  0  0  0  0  0
    4.5375   -2.6042    0.0000 C   0  0  0  0  0  0  0  0  0  0  0  0
    2.4792   -1.2167    0.0000 C   0  0  0  0  0  0  0  0  0  0  0  0
    3.2000   -0.7917    0.0000 O   0  0  0  0  0  0  0  0  0  0  0  0
    3.9167   -1.2167    0.0000 C   0  0  0  0  0  0  0  0  0  0  0  0
    4.6792   -4.0250    0.0000 C   0  0  0  0  0  0  0  0  0  0  0  0
    1.7667   -2.4542    0.0000 C   0  0  0  0  0  0  0  0  0  0  0  0
    1.7667   -0.8042    0.0000 C   0  0  0  0  0  0  0  0  0  0  0  0
    5.3542   -2.5167    0.0000 C   0  0  0  0  0  0  0  0  0  0  0  0
    5.5000   -3.9417    0.0000 C   0  0  0  0  0  0  0  0  0  0  0  0
    1.0542   -1.2167    0.0000 C   0  0  0  0  0  0  0  0  0  0  0  0
    1.0542   -2.0417    0.0000 C   0  0  0  0  0  0  0  0  0  0  0  0
    5.8375   -3.1792    0.0000 C   0  0  0  0  0  0  0  0  0  0  0  0
    0.3417   -0.8042    0.0000 O   0  0  0  0  0  0  0  0  0  0  0  0
    5.9792   -4.6042    0.0000 O   0  0  0  0  0  0  0  0  0  0  0  0
    0.3417    0.0208    0.0000 C   0  0  0  0  0  0  0  0  0  0  0  0
    5.6417   -5.3625    0.0000 C   0  0  0  0  0  0  0  0  0  0  0  0
  1  2  1  1
  3  1  1  0
  4  2  1  0
  1  5  1  0
  6  3  1  0
  7  5  2  0
  8  7  1  0
  3  9  1  1
 10  4  2  0
 11  5  1  0
 12  7  1  0
 13  6  2  0
 14 10  1  0
 15 16  1  0
 16 11  2  0
 17 13  1  0
 18 15  1  0
 19 14  1  0
 20 18  1  0
 21 19  1  0
  8  9  1  0
  4  6  1  0
 15 12  2  0
 17 14  2  0
M  END
>  <ID>  (1796) 


>  <MOLENAME>  (1796) 
HOMOPTEROCARPIN

>  <therap>  (1796) 
nan

>  <ref>  (1796) 
J Chem Soc 1940:787

>  <cas#>  (1796) 
606-91-7

>  <source>  (1796) 
mp 82-84 C; Pterocarpus santalinus

>  <status>  (1796) 
undetermined activity

>  <tradename>  (1796) 
nan

>  <SMILES>  (1796) 
COc1ccc2c(c1)O[C@H]1c3c(cc(OC)cc3)OC[C@@H]21

>  <standardized_failed>  (1796) 
False

$$$$

     RDKit          2D

 14 14  0  0  0  0  0  0  0  0999 V2000
    3.3250   -2.5750    0.0000 C   0  0  0  0  0  0  0  0  0  0  0  0
    2.6042   -2.9875    0.0000 C   0  0  0  0  0  0  0  0  0  0  0  0
    3.3250   -1.7417    0.0000 C   0  0  0  0  0  0  0  0  0  0  0  0
    1.8917   -2.5750    0.0000 C   0  0  0  0  0  0  0  0  0  0  0  0
    2.6042   -1.3292    0.0000 C   0  0  0  0  0  0  0  0  0  0  0  0
    4.0417   -2.9875    0.0000 C   0  0  0  0  0  0  0  0  0  0  0  0
    1.8917   -1.7500    0.0000 C   0  0  0  0  0  0  0  0  0  0  0  0
    4.0417   -3.8125    0.0000 O   0  0  0  0  0  0  0  0  0  0  0  0
    2.6042   -3.8125    0.0000 O   0  0  0  0  0  0  0  0  0  0  0  0
    4.0375   -1.3292    0.0000 O   0  0  0  0  0  0  0  0  0  0  0  0
    1.1792   -1.3375    0.0000 O   0  0  0  0  0  0  0  0  0  0  0  0
    4.7542   -2.5667    0.0000 C   0  0  0  0  0  0  0  0  0  0  0  0
    4.7542   -1.7375    0.0000 C   0  0  0  0  0  0  0  0  0  0  0  0
    1.1792   -0.5125    0.0000 C   0  0  0  0  0  0  0  0  0  0  0  0
  2  1  2  0
  3  1  1  0
  4  2  1  0
  5  3  2  0
  6  1  1  0
  7  5  1  0
  8  6  2  0
  9  2  1  0
 10  3  1  0
 11  7  1  0
 12  6  1  0
 13 10  1  0
 14 11  1  0
  4  7  2  0
M  END
>  <ID>  (1797) 


>  <MOLENAME>  (1797) 
XANTHOXYLIN

>  <therap>  (1797) 
nan

>  <ref>  (1797) 
nan

>  <cas#>  (1797) 
90-24-4

>  <source>  (1797) 
Xanthoxylium spp, Artemisia brevifolia

>  <status>  (1797) 
undetermined activity

>  <tradename>  (1797) 
nan

>  <SMILES>  (1797) 
COc1cc(O)c(C(C)=O)c(OC)c1

>  <standardized_failed>  (1797) 
False

$$$$

     RDKit          2D

 29 33  0  0  0  0  0  0  0  0999 V2000
    8.0167   -1.4542    0.0000 C   0  0  0  0  0  0  0  0  0  0  0  0
    7.2250   -2.8500    0.0000 C   0  0  0  0  0  0  0  0  0  0  0  0
    6.4167   -2.4000    0.0000 C   0  0  0  0  0  0  0  0  0  0  0  0
    8.0167   -2.4000    0.0000 C   0  0  0  0  0  0  0  0  0  0  0  0
    5.6250   -2.8500    0.0000 C   0  0  0  0  0  0  0  0  0  0  0  0
    7.2250   -1.0042    0.0000 O   0  0  0  0  0  0  0  0  0  0  0  0
    8.8042   -1.0042    0.0000 C   0  0  0  0  0  0  0  0  0  0  0  0
    6.4167   -1.4542    0.0000 C   0  0  0  0  0  0  0  0  0  0  0  0
    4.8292   -2.4000    0.0000 C   0  0  0  0  0  0  0  0  0  0  0  0
    9.6167   -1.4542    0.0000 C   0  0  0  0  0  0  0  0  0  0  0  0
    8.8042   -0.0792    0.0000 C   0  0  0  0  0  0  0  0  0  0  0  0
    5.6250   -3.7542    0.0000 C   0  0  0  0  0  0  0  0  0  0  0  0
   10.3667   -1.0042    0.0000 O   0  0  0  0  0  0  0  0  0  0  0  0
    4.8292   -1.4542    0.0000 O   0  0  0  0  0  0  0  0  0  0  0  0
    4.0250   -2.8500    0.0000 C   0  0  0  0  0  0  0  0  0  0  0  0
    8.8042   -2.8500    0.0000 C   0  0  0  0  0  0  0  0  0  0  0  0
    4.8167   -4.2292    0.0000 C   0  0  0  0  0  0  0  0  0  0  0  0
    4.0250   -3.7792    0.0000 C   0  0  0  0  0  0  0  0  0  0  0  0
    9.5875    0.3708    0.0000 C   0  0  0  0  0  0  0  0  0  0  0  0
   10.3750   -0.0792    0.0000 C   0  0  0  0  0  0  0  0  0  0  0  0
    5.6250   -1.0042    0.0000 C   0  0  0  0  0  0  0  0  0  0  0  0
    7.2250   -3.7792    0.0000 O   0  0  0  0  0  0  0  0  0  0  0  0
    9.6167   -2.4000    0.0000 C   0  0  0  0  0  0  0  0  0  0  0  0
    4.8167   -5.1667    0.0000 O   0  0  0  0  0  0  0  0  0  0  0  0
    3.2375   -4.2292    0.0000 O   0  0  0  0  0  0  0  0  0  0  0  0
   11.0875   -0.4667    0.0000 C   0  0  0  0  0  0  0  0  0  0  0  0
   10.3750    0.8208    0.0000 C   0  0  0  0  0  0  0  0  0  0  0  0
    5.5917   -5.6042    0.0000 C   0  0  0  0  0  0  0  0  0  0  0  0
    2.4250   -3.7792    0.0000 C   0  0  0  0  0  0  0  0  0  0  0  0
  2  4  1  0
  3  8  1  0
  4  1  2  0
  5  3  1  0
  6  1  1  0
  7  1  1  0
  8  6  1  0
  9 14  1  0
 10  7  2  0
 11  7  1  0
 12  5  2  0
 13 10  1  0
 14 21  1  0
 15  9  2  0
 16  4  1  0
 17 12  1  0
 18 15  1  0
 19 11  2  0
 20 19  1  0
  8 21  1  1
 22  2  2  0
 23 10  1  0
 24 17  1  0
 25 18  1  0
 26 20  1  0
 27 20  1  0
 28 24  1  0
 29 25  1  0
 16 23  2  0
  3  2  1  1
 13 20  1  0
  5  9  1  0
 18 17  2  0
M  END
>  <ID>  (1798) 


>  <MOLENAME>  (1798) 
DEGUELIN(-)

>  <therap>  (1798) 
antineoplastic, antiviral, insecticide

>  <ref>  (1798) 
J Am Chem Soc 56: 2415 (1934); J Org Chem 44: 2580 (1979); Applied Microbiol 18: 660 (1969); Proc Natl Acad Sci 95: 3380 (1998); J Natl Cancer Inst 95: 291 (2003)

>  <cas#>  (1798) 
522-17-8

>  <source>  (1798) 
Tephrosia & Derris spp

>  <status>  (1798) 
experimental

>  <tradename>  (1798) 
nan

>  <SMILES>  (1798) 
COc1c(OC)cc2c(c1)OC[C@H]1Oc3c(ccc4c3C=CC(C)(C)O4)C(=O)[C@@H]21

>  <standardized_failed>  (1798) 
False

$$$$

     RDKit          2D

 28 32  0  0  0  0  0  0  0  0999 V2000
    8.1167    0.1250    0.0000 C   0  0  0  0  0  0  0  0  0  0  0  0
    8.1167    0.8500    0.0000 C   0  0  0  0  0  0  0  0  0  0  0  0
    6.8292    0.1250    0.0000 C   0  0  0  0  0  0  0  0  0  0  0  0
    6.1917   -0.2375    0.0000 C   0  0  0  0  0  0  0  0  0  0  0  0
    7.4792   -0.2375    0.0000 C   0  0  0  0  0  0  0  0  0  0  0  0
    8.8292    1.0833    0.0000 C   0  0  0  0  0  0  0  0  0  0  0  0
    7.4792    1.2208    0.0000 C   0  0  0  0  0  0  0  0  0  0  0  0
    8.9167    1.7125    0.0000 C   0  0  0  0  0  0  0  0  0  0  0  0
    6.8292    0.8500    0.0000 C   0  0  0  0  0  0  0  0  0  0  0  0
    9.5792    2.1833    0.0000 C   0  0  0  0  0  0  0  0  0  0  0  0
    6.1917   -0.9667    0.0000 C   0  0  0  0  0  0  0  0  0  0  0  0
    8.8292   -0.0917    0.0000 C   0  0  0  0  0  0  0  0  0  0  0  0
    9.3250    2.9458    0.0000 C   0  0  0  0  0  0  0  0  0  0  0  0
    8.5167    2.9458    0.0000 O   0  0  0  0  0  0  0  0  0  0  0  0
    9.2625    0.4958    0.0000 C   0  0  0  0  0  0  0  0  0  0  0  0
    5.5417    0.1250    0.0000 C   0  0  0  0  0  0  0  0  0  0  0  0
    7.4792   -0.9667    0.0000 C   0  0  0  0  0  0  0  0  0  0  0  0
    8.2542    2.1958    0.0000 C   0  0  0  0  0  0  0  0  0  0  0  0
    6.8292   -1.3292    0.0000 C   0  0  0  0  0  0  0  0  0  0  0  0
    5.5417   -1.3292    0.0000 C   0  0  0  0  0  0  0  0  0  0  0  0
    8.1167   -0.4500    0.0000 O   0  0  0  0  0  0  0  0  0  0  0  0
    9.8042    3.5958    0.0000 O   0  0  0  0  0  0  0  0  0  0  0  0
    8.1167    1.4333    0.0000 C   0  0  0  0  0  0  0  0  0  0  0  0
    7.4750    1.9583    0.0000 O   0  0  0  0  0  0  0  0  0  0  0  0
    4.9000   -0.2375    0.0000 C   0  0  0  0  0  0  0  0  0  0  0  0
    4.9000   -0.9667    0.0000 C   0  0  0  0  0  0  0  0  0  0  0  0
    6.1917    0.5833    0.0000 C   0  0  0  0  0  0  0  0  0  0  0  0
    4.1542   -1.3667    0.0000 O   0  0  0  0  0  0  0  0  0  0  0  0
  2  1  1  0
  3  5  1  0
  4  3  1  0
  5  1  1  0
  6  2  1  0
  7  2  1  0
  6  8  1  0
  9  3  1  0
 10  8  2  0
 11 19  1  6
 12  1  1  0
 13 10  1  0
 14 18  1  0
 15 12  1  0
 16  4  1  0
 17  5  1  0
 18  8  1  0
 19 17  1  0
 20 11  1  0
  1 21  1  1
 22 13  2  0
  2 23  1  1
  7 24  1  1
 25 16  1  0
 26 20  1  0
  4 27  1  1
 26 28  1  1
  6 15  1  1
  9  7  1  0
  4 11  1  0
 14 13  1  0
 26 25  1  0
M  END
>  <ID>  (1799) 


>  <MOLENAME>  (1799) 
DIGOXIGENIN

>  <therap>  (1799) 
nan

>  <ref>  (1799) 
J Chem Soc 1954: 2012

>  <cas#>  (1799) 
1672-46-4

>  <source>  (1799) 
aglycon of digitoxin, thevetin, cerberin, echujin, evomonoside; mp 217-218

>  <status>  (1799) 
undetermined activity

>  <tradename>  (1799) 
nan

>  <SMILES>  (1799) 
C[C@]12CC[C@H](O)C[C@H]1CCC1C2C[C@@H](O)[C@]2(C)[C@@H](C3=CC(=O)OC3)CC[C@]12O

>  <standardized_failed>  (1799) 
False

$$$$

     RDKit          2D

 49 54  0  0  0  0  0  0  0  0999 V2000
    8.2875   -3.9417    0.0000 C   0  0  0  0  0  0  0  0  0  0  0  0
    8.9542   -3.5542    0.0000 C   0  0  0  0  0  0  0  0  0  0  0  0
    8.2875   -4.7417    0.0000 C   0  0  0  0  0  0  0  0  0  0  0  0
    6.8917   -4.7417    0.0000 C   0  0  0  0  0  0  0  0  0  0  0  0
    7.5667   -5.1417    0.0000 C   0  0  0  0  0  0  0  0  0  0  0  0
    6.8917   -3.9417    0.0000 C   0  0  0  0  0  0  0  0  0  0  0  0
    8.8917   -4.6875    0.0000 C   0  0  0  0  0  0  0  0  0  0  0  0
    6.2042   -5.1417    0.0000 C   0  0  0  0  0  0  0  0  0  0  0  0
    7.5667   -3.5542    0.0000 O   0  0  0  0  0  0  0  0  0  0  0  0
    5.5250   -3.9417    0.0000 C   0  0  0  0  0  0  0  0  0  0  0  0
    5.5250   -4.7417    0.0000 C   0  0  0  0  0  0  0  0  0  0  0  0
    8.7917   -2.8542    0.0000 O   0  0  0  0  0  0  0  0  0  0  0  0
    6.2042   -3.5542    0.0000 C   0  0  0  0  0  0  0  0  0  0  0  0
    8.9542   -5.1417    0.0000 C   0  0  0  0  0  0  0  0  0  0  0  0
    9.6417   -3.9417    0.0000 C   0  0  0  0  0  0  0  0  0  0  0  0
    8.2667   -3.0500    0.0000 C   0  0  0  0  0  0  0  0  0  0  0  0
    9.6417   -4.7417    0.0000 C   0  0  0  0  0  0  0  0  0  0  0  0
   10.2500   -5.3375    0.0000 C   0  0  0  0  0  0  0  0  0  0  0  0
    4.8375   -5.1417    0.0000 C   0  0  0  0  0  0  0  0  0  0  0  0
    4.8375   -3.5542    0.0000 O   0  0  0  0  0  0  0  0  0  0  0  0
    9.5000   -2.8542    0.0000 C   0  0  0  0  0  0  0  0  0  0  0  0
    6.2042   -5.9292    0.0000 O   0  0  0  0  0  0  0  0  0  0  0  0
    8.8917   -2.1875    0.0000 C   0  0  0  0  0  0  0  0  0  0  0  0
    6.2042   -2.7542    0.0000 C   0  0  0  0  0  0  0  0  0  0  0  0
    9.1250   -0.6167    0.0000 C   0  0  0  0  0  0  0  0  0  0  0  0
    9.3917   -1.3625    0.0000 C   0  0  0  0  0  0  0  0  0  0  0  0
    4.1542   -4.7417    0.0000 C   0  0  0  0  0  0  0  0  0  0  0  0
    4.1542   -3.9417    0.0000 C   0  0  0  0  0  0  0  0  0  0  0  0
    5.5250   -2.3792    0.0000 C   0  0  0  0  0  0  0  0  0  0  0  0
    5.4917   -6.3417    0.0000 C   0  0  0  0  0  0  0  0  0  0  0  0
    7.5667   -5.9292    0.0000 O   0  0  0  0  0  0  0  0  0  0  0  0
   10.3625   -3.5375    0.0000 O   0  0  0  0  0  0  0  0  0  0  0  0
    9.4292    0.1333    0.0000 O   0  0  0  0  0  0  0  0  0  0  0  0
    5.5250   -1.5667    0.0000 C   0  0  0  0  0  0  0  0  0  0  0  0
    5.4917   -7.1667    0.0000 O   0  0  0  0  0  0  0  0  0  0  0  0
    1.6875   -3.9417    0.0000 C   0  0  0  0  0  0  0  0  0  0  0  0
    2.3167   -3.5792    0.0000 C   0  0  0  0  0  0  0  0  0  0  0  0
    8.3792   -0.6750    0.0000 O   0  0  0  0  0  0  0  0  0  0  0  0
    7.9917   -2.2417    0.0000 C   0  0  0  0  0  0  0  0  0  0  0  0
    7.3792   -3.1500    0.0000 C   0  0  0  0  0  0  0  0  0  0  0  0
    2.9167   -3.9417    0.0000 C   0  0  0  0  0  0  0  0  0  0  0  0
    3.5292   -3.5917    0.0000 C   0  0  0  0  0  0  0  0  0  0  0  0
   10.2875   -1.3625    0.0000 C   0  0  0  0  0  0  0  0  0  0  0  0
    4.7792   -5.9292    0.0000 C   0  0  0  0  0  0  0  0  0  0  0  0
    4.1542   -3.1042    0.0000 C   0  0  0  0  0  0  0  0  0  0  0  0
    6.2042   -1.1792    0.0000 C   0  0  0  0  0  0  0  0  0  0  0  0
    4.8375   -1.1792    0.0000 C   0  0  0  0  0  0  0  0  0  0  0  0
    1.0792   -3.5792    0.0000 C   0  0  0  0  0  0  0  0  0  0  0  0
    1.7125   -4.5750    0.0000 C   0  0  0  0  0  0  0  0  0  0  0  0
  1  2  1  0
  3  1  1  0
  4  6  2  0
  5  3  1  0
  6  9  1  0
  1  7  1  0
  8  4  1  0
  1  9  1  1
 10 13  2  0
 11 10  1  0
 12  2  1  0
 13  6  1  0
 14  3  2  0
 15  2  1  0
 16  7  1  0
 17 18  1  1
 18  7  1  0
 19 11  1  0
 20 10  1  0
 21  2  1  0
 22  8  1  0
 23 21  1  0
 24 13  1  0
 25 26  1  0
 26 23  2  0
 27 28  1  0
 28 20  1  0
 29 24  1  0
 30 22  1  0
 31  5  2  0
 32 15  2  0
 33 25  2  0
 34 29  2  0
 35 30  2  0
 36 37  2  0
 37 41  1  0
 38 25  1  0
 39 16  1  0
 40 16  1  0
 41 42  1  0
 42 28  1  0
 43 26  1  0
 44 30  1  0
 45 28  1  0
 46 34  1  0
 47 34  1  0
 48 36  1  0
 49 36  1  0
 12 16  1  0
  4  5  1  0
 17 14  1  0
 15 17  1  0
  8 11  2  0
 27 19  2  0
M  END
>  <ID>  (1800) 


>  <MOLENAME>  (1800) 
ACETYL ISOGAMBOGIC ACID

>  <therap>  (1800) 
nan

>  <ref>  (1800) 
J Chem Soc 1966:772; Magn Reson Chem 31: 340 (1993)

>  <cas#>  (1800) 
nan

>  <source>  (1800) 
derivative

>  <status>  (1800) 
undetermined activity

>  <tradename>  (1800) 
nan

>  <SMILES>  (1800) 
CC(=O)Oc1c2C=CC(C)(CCC=C(C)C)Oc2c(CC=C(C)C)c2c1C(=O)C1=C[C@@H]3CC4C(C)(C)OC(C/C=C(\C)C(=O)O)(C3=O)[C@@]14O2

>  <standardized_failed>  (1800) 
False

$$$$

     RDKit          2D

 34 38  0  0  0  0  0  0  0  0999 V2000
    1.4292   -1.4667    0.0000 C   0  0  0  0  0  0  0  0  0  0  0  0
    2.1417   -1.0417    0.0000 C   0  0  0  0  0  0  0  0  0  0  0  0
    1.4292   -2.2917    0.0000 C   0  0  0  0  0  0  0  0  0  0  0  0
    2.8542   -1.4667    0.0000 C   0  0  0  0  0  0  0  0  0  0  0  0
    3.5667   -1.0542    0.0000 C   0  0  0  0  0  0  0  0  0  0  0  0
    3.5792   -0.2292    0.0000 C   0  0  0  0  0  0  0  0  0  0  0  0
    0.7125   -2.6917    0.0000 C   0  0  0  0  0  0  0  0  0  0  0  0
    0.7125   -1.0417    0.0000 C   0  0  0  0  0  0  0  0  0  0  0  0
    0.0000   -2.2917    0.0000 C   0  0  0  0  0  0  0  0  0  0  0  0
    4.3000    0.1833    0.0000 C   0  0  0  0  0  0  0  0  0  0  0  0
    0.0000   -1.4667    0.0000 C   0  0  0  0  0  0  0  0  0  0  0  0
    2.1417   -2.7042    0.0000 C   0  0  0  0  0  0  0  0  0  0  0  0
    2.8625   -2.2917    0.0000 C   0  0  0  0  0  0  0  0  0  0  0  0
    5.0417    1.4208    0.0000 C   0  0  0  0  0  0  0  0  0  0  0  0
    4.3042    1.0083    0.0000 C   0  0  0  0  0  0  0  0  0  0  0  0
    5.0125   -0.2417    0.0000 C   0  0  0  0  0  0  0  0  0  0  0  0
    2.1417   -0.2167    0.0000 C   0  0  0  0  0  0  0  0  0  0  0  0
    2.8625    0.1958    0.0000 C   0  0  0  0  0  0  0  0  0  0  0  0
    5.0542    2.2458    0.0000 C   0  0  0  0  0  0  0  0  0  0  0  0
    4.2792   -1.4792    0.0000 C   0  0  0  0  0  0  0  0  0  0  0  0
    5.0000   -1.0667    0.0000 C   0  0  0  0  0  0  0  0  0  0  0  0
   -0.7208   -1.0417    0.0000 O   0  0  0  0  0  0  0  0  0  0  0  0
    5.7542    0.9833    0.0000 C   0  0  0  0  0  0  0  0  0  0  0  0
    5.7375    0.1583    0.0000 C   0  0  0  0  0  0  0  0  0  0  0  0
    4.3417    2.6708    0.0000 O   0  0  0  0  0  0  0  0  0  0  0  0
   -0.7208   -2.7042    0.0000 O   0  0  0  0  0  0  0  0  0  0  0  0
    1.4167   -0.6292    0.0000 C   0  0  0  0  0  0  0  0  0  0  0  0
    3.5542   -1.8792    0.0000 C   0  0  0  0  0  0  0  0  0  0  0  0
    3.5667    0.6083    0.0000 C   0  0  0  0  0  0  0  0  0  0  0  0
    5.7792    2.6458    0.0000 O   0  0  0  0  0  0  0  0  0  0  0  0
    0.7042   -3.5167    0.0000 C   0  0  0  0  0  0  0  0  0  0  0  0
    4.3167    1.8333    0.0000 C   0  0  0  0  0  0  0  0  0  0  0  0
    5.5917   -0.8292    0.0000 C   0  0  0  0  0  0  0  0  0  0  0  0
    6.4792    2.2208    0.0000 C   0  0  0  0  0  0  0  0  0  0  0  0
  2  1  1  0
  3  1  1  0
  4  2  1  0
  5  4  1  0
  6 18  1  0
  7  3  1  0
  8  1  2  0
  9 11  1  0
 10  6  1  0
 11  8  1  0
 12  3  2  0
 13 12  1  0
 14 15  1  0
 10 15  1  6
 16 10  1  0
 17  2  1  0
 18 17  1  0
 14 19  1  0
 20  5  1  0
 21 20  1  0
 22 11  2  0
 23 24  1  0
 24 16  1  0
 25 19  2  0
 26  9  1  0
  2 27  1  1
  5 28  1  1
  6 29  1  6
 30 19  1  0
 31  7  1  0
 14 32  1  1
 16 33  1  1
 34 30  1  0
  7  9  2  0
 13  4  2  0
  6  5  1  0
 16 21  1  0
 23 14  1  0
M  END
>  <ID>  (1801) 


>  <MOLENAME>  (1801) 
PRISTIMERIN

>  <therap>  (1801) 
antineoplastic, antiinflammatory

>  <ref>  (1801) 
nan

>  <cas#>  (1801) 
1258-84-0

>  <source>  (1801) 
Celastrus and Maytenus spp

>  <status>  (1801) 
experimental

>  <tradename>  (1801) 
nan

>  <SMILES>  (1801) 
COC(=O)[C@]1(C)CC[C@]2(C)CC[C@]3(C)C4=CC=C5C(=CC(=O)C(O)=C5C)[C@]4(C)CC[C@@]3(C)[C@@H]2C1

>  <standardized_failed>  (1801) 
False

$$$$

     RDKit          2D

 29 28  0  0  0  0  0  0  0  0999 V2000
   10.2917   -0.1417    0.0000 C   0  0  0  0  0  0  0  0  0  0  0  0
    9.5792   -0.5542    0.0000 C   0  0  0  0  0  0  0  0  0  0  0  0
   11.0042    0.2708    0.0000 C   0  0  0  0  0  0  0  0  0  0  0  0
   10.2917    0.6833    0.0000 C   0  0  0  0  0  0  0  0  0  0  0  0
    9.5792   -1.3792    0.0000 C   0  0  0  0  0  0  0  0  0  0  0  0
   11.8292    0.2708    0.0000 C   0  0  0  0  0  0  0  0  0  0  0  0
    9.5792    1.0958    0.0000 O   0  0  0  0  0  0  0  0  0  0  0  0
    8.8667   -1.7917    0.0000 O   0  0  0  0  0  0  0  0  0  0  0  0
   12.2417    0.9875    0.0000 O   0  0  0  0  0  0  0  0  0  0  0  0
   11.0042   -0.5542    0.0000 O   0  0  0  0  0  0  0  0  0  0  0  0
   11.0125    1.0958    0.0000 O   0  0  0  0  0  0  0  0  0  0  0  0
   10.2917   -1.7917    0.0000 O   0  0  0  0  0  0  0  0  0  0  0  0
   12.2417   -0.4417    0.0000 O   0  0  0  0  0  0  0  0  0  0  0  0
    8.8667   -0.1417    0.0000 C   0  0  0  0  0  0  0  0  0  0  0  0
    8.1542   -0.5542    0.0000 C   0  0  0  0  0  0  0  0  0  0  0  0
   -1.1083   -0.1417    0.0000 C   0  0  0  0  0  0  0  0  0  0  0  0
   -0.3958   -0.5542    0.0000 C   0  0  0  0  0  0  0  0  0  0  0  0
    3.1667   -0.1417    0.0000 C   0  0  0  0  0  0  0  0  0  0  0  0
    3.8792   -0.5542    0.0000 C   0  0  0  0  0  0  0  0  0  0  0  0
    4.5917   -0.1417    0.0000 C   0  0  0  0  0  0  0  0  0  0  0  0
    5.3042   -0.5542    0.0000 C   0  0  0  0  0  0  0  0  0  0  0  0
    6.0167   -0.1417    0.0000 C   0  0  0  0  0  0  0  0  0  0  0  0
    6.7292   -0.5542    0.0000 C   0  0  0  0  0  0  0  0  0  0  0  0
    7.4417   -0.1417    0.0000 C   0  0  0  0  0  0  0  0  0  0  0  0
    0.3167   -0.1417    0.0000 C   0  0  0  0  0  0  0  0  0  0  0  0
    1.0292   -0.5542    0.0000 C   0  0  0  0  0  0  0  0  0  0  0  0
    1.7417   -0.1417    0.0000 C   0  0  0  0  0  0  0  0  0  0  0  0
    2.4542   -0.5542    0.0000 C   0  0  0  0  0  0  0  0  0  0  0  0
   -1.8208   -0.5542    0.0000 C   0  0  0  0  0  0  0  0  0  0  0  0
  2  1  1  0
  3  1  1  0
  4  1  1  0
  5  2  1  0
  6  3  1  0
  7  4  2  0
  8  5  2  0
  9  6  2  0
 10  1  1  0
 11  4  1  0
 12  5  1  0
 13  6  1  0
 14  2  1  0
 15 14  1  0
 16 17  1  0
 17 25  1  0
 18 19  1  0
 19 20  1  0
 20 21  1  0
 21 22  1  0
 22 23  1  0
 23 24  1  0
 24 15  1  0
 25 26  1  0
 26 27  1  0
 27 28  1  0
 28 18  1  0
 29 16  1  0
M  END
>  <ID>  (1802) 


>  <MOLENAME>  (1802) 
AGARIC ACID

>  <therap>  (1802) 
antiperspirant

>  <ref>  (1802) 
J Bacteriol 98:23 (1969)

>  <cas#>  (1802) 
666-99-9

>  <source>  (1802) 
Fomes and Polyporus spp

>  <status>  (1802) 
experimental

>  <tradename>  (1802) 
nan

>  <SMILES>  (1802) 
CCCCCCCCCCCCCCCCC(C(=O)O)C(O)(CC(=O)O)C(=O)O

>  <standardized_failed>  (1802) 
False

$$$$

     RDKit          2D

 25 27  0  0  0  0  0  0  0  0999 V2000
    3.4042   -6.7125    0.0000 S   0  0  0  0  0  0  0  0  0  0  0  0
    8.4250   -4.6292    0.0000 C   0  0  0  0  0  0  0  0  0  0  0  0
    8.4250   -5.4625    0.0000 C   0  0  0  0  0  0  0  0  0  0  0  0
    7.7042   -5.8750    0.0000 C   0  0  0  0  0  0  0  0  0  0  0  0
    6.9917   -5.4625    0.0000 C   0  0  0  0  0  0  0  0  0  0  0  0
    6.2792   -5.8750    0.0000 C   0  0  0  0  0  0  0  0  0  0  0  0
    6.2792   -6.7042    0.0000 C   0  0  0  0  0  0  0  0  0  0  0  0
    7.7042   -4.2167    0.0000 C   0  0  0  0  0  0  0  0  0  0  0  0
    6.9917   -4.6292    0.0000 C   0  0  0  0  0  0  0  0  0  0  0  0
    7.7042   -6.7042    0.0000 C   0  0  0  0  0  0  0  0  0  0  0  0
    9.2042   -5.7167    0.0000 C   0  0  0  0  0  0  0  0  0  0  0  0
    4.1292   -7.1250    0.0000 O   0  0  0  0  0  0  0  0  0  0  0  0
    2.9917   -7.3792    0.0000 O   0  0  0  0  0  0  0  0  0  0  0  0
    5.5667   -5.4625    0.0000 C   0  0  0  0  0  0  0  0  0  0  0  0
    3.8167   -5.9917    0.0000 O   0  0  0  0  0  0  0  0  0  0  0  0
    2.6875   -6.3000    0.0000 O   0  0  0  0  0  0  0  0  0  0  0  0
    9.2042   -4.3792    0.0000 C   0  0  0  0  0  0  0  0  0  0  0  0
    5.5667   -7.1167    0.0000 C   0  0  0  0  0  0  0  0  0  0  0  0
    6.9917   -7.1167    0.0000 C   0  0  0  0  0  0  0  0  0  0  0  0
    4.8500   -6.7042    0.0000 C   0  0  0  0  0  0  0  0  0  0  0  0
    9.6917   -5.0417    0.0000 C   0  0  0  0  0  0  0  0  0  0  0  0
    4.8500   -5.8750    0.0000 C   0  0  0  0  0  0  0  0  0  0  0  0
    8.4500   -3.8375    0.0000 C   0  0  0  0  0  0  0  0  0  0  0  0
    9.4625   -3.5917    0.0000 O   0  0  0  0  0  0  0  0  0  0  0  0
    3.2792   -5.1417    0.0000 Na  0  0  0  0  0 15  0  0  0  0  0  0
  2  8  1  0
  3  4  1  0
  4  5  1  0
  5  6  1  0
  6 14  2  0
  7 18  2  0
  8  9  1  0
  9  5  1  0
 10 19  1  0
 11  3  1  0
 12  1  1  0
 13  1  1  0
 14 22  1  0
 15  1  2  0
 16  1  2  0
 17  2  1  0
 18 20  1  0
 19  7  1  0
 20 12  1  0
 21 11  1  0
 22 20  2  0
  2 23  1  1
 17 24  1  6
  6  7  1  0
  4 10  1  0
  2  3  1  0
 17 21  1  0
M  CHG  2  13  -1  25   1
M  END
>  <ID>  (1803) 


>  <MOLENAME>  (1803) 
ESTRADIOL-3-SULFATE. SODIUM SALT

>  <therap>  (1803) 
estrogen

>  <ref>  (1803) 
nan

>  <cas#>  (1803) 
nan

>  <source>  (1803) 
semisynthetic

>  <status>  (1803) 
experimental

>  <tradename>  (1803) 
nan

>  <SMILES>  (1803) 
C[C@]12CCC3c4ccc(OS(=O)(=O)O)cc4CCC3C1CC[C@H]2O

>  <standardized_failed>  (1803) 
False

$$$$

     RDKit          2D

 21 20  0  0  0  0  0  0  0  0999 V2000
    7.9542   -0.5250    0.0000 C   0  0  0  0  0  0  0  0  0  0  0  0
    8.6667   -0.1125    0.0000 O   0  0  0  0  0  0  0  0  0  0  0  0
    1.5417   -0.1167    0.0000 C   0  0  0  0  0  0  0  0  0  0  0  0
    2.2542   -0.5292    0.0000 C   0  0  0  0  0  0  0  0  0  0  0  0
    7.9542   -1.3500    0.0000 O   0  0  0  0  0  0  0  0  0  0  0  0
    2.2542   -1.3542    0.0000 O   0  0  0  0  0  0  0  0  0  0  0  0
    1.5417    0.7083    0.0000 O   0  0  0  0  0  0  0  0  0  0  0  0
   -3.4458   -0.5292    0.0000 O   0  0  0  0  0  0  0  0  0  0  0  0
    7.2417   -0.1167    0.0000 C   0  0  0  0  0  0  0  0  0  0  0  0
    0.8292   -0.5292    0.0000 C   0  0  0  0  0  0  0  0  0  0  0  0
    2.9667   -0.1167    0.0000 C   0  0  0  0  0  0  0  0  0  0  0  0
   -2.7333   -0.1167    0.0000 C   0  0  0  0  0  0  0  0  0  0  0  0
    6.5292   -0.5292    0.0000 C   0  0  0  0  0  0  0  0  0  0  0  0
    0.1167   -0.1167    0.0000 C   0  0  0  0  0  0  0  0  0  0  0  0
    3.6792   -0.5292    0.0000 C   0  0  0  0  0  0  0  0  0  0  0  0
   -2.0208   -0.5292    0.0000 C   0  0  0  0  0  0  0  0  0  0  0  0
    4.3917   -0.1167    0.0000 C   0  0  0  0  0  0  0  0  0  0  0  0
    5.1042   -0.5292    0.0000 C   0  0  0  0  0  0  0  0  0  0  0  0
    5.8167   -0.1167    0.0000 C   0  0  0  0  0  0  0  0  0  0  0  0
   -1.3083   -0.1167    0.0000 C   0  0  0  0  0  0  0  0  0  0  0  0
   -0.5958   -0.5292    0.0000 C   0  0  0  0  0  0  0  0  0  0  0  0
  2  1  2  0
  3  4  1  0
  4 11  1  0
  5  1  1  0
  6  4  1  0
  7  3  1  0
  8 12  1  0
  9  1  1  0
 10  3  1  0
 11 15  1  0
 12 16  1  0
 13  9  1  0
 14 10  1  0
 15 17  1  0
 16 20  1  0
 17 18  1  0
 18 19  1  0
 19 13  1  0
 20 21  1  0
 21 14  1  0
M  END
>  <ID>  (1804) 


>  <MOLENAME>  (1804) 
ALEURETIC ACID

>  <therap>  (1804) 
nan

>  <ref>  (1804) 
J Chem Soc 1944:306; J Sci Ind Res 11B:458 (1952)

>  <cas#>  (1804) 
533-87-9

>  <source>  (1804) 
shellac constituent

>  <status>  (1804) 
undetermined activity

>  <tradename>  (1804) 
nan

>  <SMILES>  (1804) 
O=C(O)CCCCCCCC(O)C(O)CCCCCCO

>  <standardized_failed>  (1804) 
False

$$$$

     RDKit          2D

 39 42  0  0  0  0  0  0  0  0999 V2000
    2.9667   -1.4167    0.0000 C   0  0  0  0  0  0  0  0  0  0  0  0
    2.9750   -2.2500    0.0000 C   0  0  0  0  0  0  0  0  0  0  0  0
    1.5417   -1.4250    0.0000 C   0  0  0  0  0  0  0  0  0  0  0  0
    4.4000   -1.4125    0.0000 C   0  0  0  0  0  0  0  0  0  0  0  0
    3.6792   -1.0042    0.0000 C   0  0  0  0  0  0  0  0  0  0  0  0
    3.6917   -2.6542    0.0000 C   0  0  0  0  0  0  0  0  0  0  0  0
    4.4042   -2.2417    0.0000 C   0  0  0  0  0  0  0  0  0  0  0  0
    5.1125   -0.9875    0.0000 C   0  0  0  0  0  0  0  0  0  0  0  0
    2.2542   -1.0125    0.0000 C   0  0  0  0  0  0  0  0  0  0  0  0
    5.8292   -1.3917    0.0000 C   0  0  0  0  0  0  0  0  0  0  0  0
    2.2542   -2.6625    0.0000 C   0  0  0  0  0  0  0  0  0  0  0  0
    1.5417   -2.2542    0.0000 C   0  0  0  0  0  0  0  0  0  0  0  0
    0.8292   -1.0167    0.0000 C   0  0  0  0  0  0  0  0  0  0  0  0
    5.8417   -2.2292    0.0000 C   0  0  0  0  0  0  0  0  0  0  0  0
    5.1292   -2.6500    0.0000 C   0  0  0  0  0  0  0  0  0  0  0  0
    6.5417   -0.9667    0.0000 C   0  0  0  0  0  0  0  0  0  0  0  0
    5.1000   -0.1542    0.0000 C   0  0  0  0  0  0  0  0  0  0  0  0
    0.1167   -1.4292    0.0000 C   0  0  0  0  0  0  0  0  0  0  0  0
    3.6750   -0.1792    0.0000 O   0  0  0  0  0  0  0  0  0  0  0  0
    3.6917   -3.4792    0.0000 O   0  0  0  0  0  0  0  0  0  0  0  0
    0.8292   -0.1875    0.0000 C   0  0  0  0  0  0  0  0  0  0  0  0
    1.5375    2.7083    0.0000 C   0  0  0  0  0  0  0  0  0  0  0  0
    6.5292   -0.1417    0.0000 O   0  0  0  0  0  0  0  0  0  0  0  0
    4.3792    0.2375    0.0000 O   0  0  0  0  0  0  0  0  0  0  0  0
    1.5375    3.5333    0.0000 O   0  0  0  0  0  0  0  0  0  0  0  0
    2.2542   -0.1875    0.0000 O   0  0  0  0  0  0  0  0  0  0  0  0
    2.2542   -3.4875    0.0000 O   0  0  0  0  0  0  0  0  0  0  0  0
    0.8292   -2.6667    0.0000 O   0  0  0  0  0  0  0  0  0  0  0  0
   -0.5958   -1.0167    0.0000 C   0  0  0  0  0  0  0  0  0  0  0  0
    0.8250    2.2875    0.0000 N   0  0  0  0  0  0  0  0  0  0  0  0
    6.5625   -2.6292    0.0000 O   0  0  0  0  0  0  0  0  0  0  0  0
    7.2625   -1.3750    0.0000 O   0  0  0  0  0  0  0  0  0  0  0  0
    5.8125    0.2583    0.0000 O   0  0  0  0  0  0  0  0  0  0  0  0
    0.1167    0.2250    0.0000 C   0  0  0  0  0  0  0  0  0  0  0  0
   -0.5958   -0.1875    0.0000 C   0  0  0  0  0  0  0  0  0  0  0  0
    0.1167   -2.2542    0.0000 O   0  0  0  0  0  0  0  0  0  0  0  0
    0.8292    1.4625    0.0000 C   0  0  0  0  0  0  0  0  0  0  0  0
    2.2542    2.2958    0.0000 C   0  0  0  0  0  0  0  0  0  0  0  0
    0.1125    1.0500    0.0000 C   0  0  0  0  0  0  0  0  0  0  0  0
  2  1  2  0
  3  9  2  0
  4  5  1  0
  5  1  1  0
  6  2  1  0
  7  4  2  0
  8  4  1  0
  9  1  1  0
 10  8  2  0
 11  2  1  0
 12  3  1  0
 13  3  1  0
 14 10  1  0
 15  7  1  0
 16 10  1  0
 17  8  1  0
 18 13  2  0
 19  5  2  0
 20  6  2  0
 21 13  1  0
 22 30  1  0
 23 16  2  0
 24 17  2  0
 25 22  2  0
 26  9  1  0
 27 11  1  0
 28 12  1  0
 29 18  1  0
 30 37  1  0
 31 14  1  0
 32 16  1  0
 33 17  1  0
 34 21  2  0
 35 34  1  0
 36 18  1  0
 37 39  1  0
 38 22  1  0
 39 34  1  0
 12 11  2  0
  7  6  1  0
 14 15  2  0
 35 29  2  0
M  END
>  <ID>  (1805) 


>  <MOLENAME>  (1805) 
LACCAIC ACID A

>  <therap>  (1805) 
nan

>  <ref>  (1805) 
J Chem Soc C 1967:842; Indian J Chem Soc 7:977 (1969)

>  <cas#>  (1805) 
15979-35-8

>  <source>  (1805) 
Coccus laccae exudate; lac resin

>  <status>  (1805) 
undetermined activity

>  <tradename>  (1805) 
nan

>  <SMILES>  (1805) 
CC(=O)NCCc1cc(-c2c(O)c3c(C(=O)c4c(C3=O)c(C(=O)O)c(C(=O)O)c(O)c4)c(O)c2O)c(O)cc1

>  <standardized_failed>  (1805) 
False

$$$$

     RDKit          2D

 16 17  0  0  0  0  0  0  0  0999 V2000
    1.8042   -2.0292    0.0000 C   0  0  0  0  0  0  0  0  0  0  0  0
    6.8000   -1.6042    0.0000 C   0  0  0  0  0  0  0  0  0  0  0  0
    1.8042   -2.8542    0.0000 C   0  0  0  0  0  0  0  0  0  0  0  0
    1.0250   -1.7792    0.0000 O   0  0  0  0  0  0  0  0  0  0  0  0
    1.0250   -3.1125    0.0000 O   0  0  0  0  0  0  0  0  0  0  0  0
    0.5417   -2.4417    0.0000 C   0  0  0  0  0  0  0  0  0  0  0  0
    2.5167   -1.6167    0.0000 C   0  0  0  0  0  0  0  0  0  0  0  0
    6.0875   -2.0167    0.0000 C   0  0  0  0  0  0  0  0  0  0  0  0
    5.3750   -1.6125    0.0000 C   0  0  0  0  0  0  0  0  0  0  0  0
    4.6625   -2.0250    0.0000 C   0  0  0  0  0  0  0  0  0  0  0  0
    6.7917   -0.7792    0.0000 O   0  0  0  0  0  0  0  0  0  0  0  0
    3.9500   -1.6167    0.0000 C   0  0  0  0  0  0  0  0  0  0  0  0
    2.5167   -3.2667    0.0000 C   0  0  0  0  0  0  0  0  0  0  0  0
    3.2375   -2.0292    0.0000 C   0  0  0  0  0  0  0  0  0  0  0  0
    7.5125   -2.0167    0.0000 O   0  0  0  0  0  0  0  0  0  0  0  0
    3.2375   -2.8542    0.0000 C   0  0  0  0  0  0  0  0  0  0  0  0
  2  8  1  0
  3  1  2  0
  4  1  1  0
  5  3  1  0
  6  4  1  0
  7  1  1  0
  8  9  2  0
  9 10  1  0
 10 12  2  0
 11  2  2  0
 12 14  1  0
 13  3  1  0
 14  7  2  0
 15  2  1  0
 16 14  1  0
  5  6  1  0
 16 13  2  0
M  END
>  <ID>  (1806) 


>  <MOLENAME>  (1806) 
PIPERIC ACID

>  <therap>  (1806) 
nan

>  <ref>  (1806) 
Chem Ber 103:3752 (1970)

>  <cas#>  (1806) 
5285-18-7

>  <source>  (1806) 
Piper nigrum, Minthostachys verticillata, Menta piperita

>  <status>  (1806) 
undetermined activity

>  <tradename>  (1806) 
nan

>  <SMILES>  (1806) 
O=C(O)/C=C/C=C/c1cc2c(cc1)OCO2

>  <standardized_failed>  (1806) 
False

$$$$

     RDKit          2D

 32 34  0  0  0  0  0  0  0  0999 V2000
    5.3292   -2.7792    0.0000 C   0  0  0  0  0  0  0  0  0  0  0  0
    6.0292   -2.3667    0.0000 C   0  0  0  0  0  0  0  0  0  0  0  0
    6.7542   -2.7667    0.0000 C   0  0  0  0  0  0  0  0  0  0  0  0
    4.6042   -2.3667    0.0000 C   0  0  0  0  0  0  0  0  0  0  0  0
    7.4667   -2.3542    0.0000 C   0  0  0  0  0  0  0  0  0  0  0  0
    5.3292   -3.6042    0.0000 C   0  0  0  0  0  0  0  0  0  0  0  0
    6.7542   -3.6042    0.0000 C   0  0  0  0  0  0  0  0  0  0  0  0
    3.8917   -2.7792    0.0000 C   0  0  0  0  0  0  0  0  0  0  0  0
    6.0417   -4.0167    0.0000 O   0  0  0  0  0  0  0  0  0  0  0  0
    8.1792   -2.7542    0.0000 C   0  0  0  0  0  0  0  0  0  0  0  0
    4.6042   -4.0167    0.0000 C   0  0  0  0  0  0  0  0  0  0  0  0
    7.4667   -4.0042    0.0000 C   0  0  0  0  0  0  0  0  0  0  0  0
    3.8917   -3.6042    0.0000 C   0  0  0  0  0  0  0  0  0  0  0  0
    8.1917   -3.5917    0.0000 C   0  0  0  0  0  0  0  0  0  0  0  0
    7.4542   -1.5292    0.0000 C   0  0  0  0  0  0  0  0  0  0  0  0
    3.1792   -2.3667    0.0000 C   0  0  0  0  0  0  0  0  0  0  0  0
    8.1667   -1.1042    0.0000 C   0  0  0  0  0  0  0  0  0  0  0  0
    3.1792   -1.5417    0.0000 C   0  0  0  0  0  0  0  0  0  0  0  0
    6.0292   -1.5417    0.0000 O   0  0  0  0  0  0  0  0  0  0  0  0
    2.4667   -1.1292    0.0000 C   0  0  0  0  0  0  0  0  0  0  0  0
    8.1542   -0.2792    0.0000 C   0  0  0  0  0  0  0  0  0  0  0  0
    4.6042   -1.5417    0.0000 O   0  0  0  0  0  0  0  0  0  0  0  0
    8.8917   -2.3417    0.0000 O   0  0  0  0  0  0  0  0  0  0  0  0
    3.1792   -4.0167    0.0000 O   0  0  0  0  0  0  0  0  0  0  0  0
    8.9042   -4.0042    0.0000 O   0  0  0  0  0  0  0  0  0  0  0  0
    8.8667    0.1333    0.0000 C   0  0  0  0  0  0  0  0  0  0  0  0
    7.4417    0.1208    0.0000 C   0  0  0  0  0  0  0  0  0  0  0  0
    2.4667   -0.3042    0.0000 C   0  0  0  0  0  0  0  0  0  0  0  0
    1.7542   -1.5417    0.0000 C   0  0  0  0  0  0  0  0  0  0  0  0
    9.6042   -2.7417    0.0000 C   0  0  0  0  0  0  0  0  0  0  0  0
    3.1792   -4.8417    0.0000 C   0  0  0  0  0  0  0  0  0  0  0  0
    8.9125   -4.8292    0.0000 C   0  0  0  0  0  0  0  0  0  0  0  0
  2  1  1  0
  3  2  1  0
  4  1  2  0
  5  3  2  0
  6  1  1  0
  7  9  1  0
  8  4  1  0
  9  6  1  0
 10  5  1  0
 11  6  2  0
 12  7  2  0
 13 11  1  0
 14 12  1  0
 15  5  1  0
 16  8  1  0
 17 15  1  0
 18 16  1  0
 19  2  2  0
 20 18  2  0
 21 17  2  0
 22  4  1  0
 23 10  1  0
 24 13  1  0
 25 14  1  0
 26 21  1  0
 27 21  1  0
 28 20  1  0
 29 20  1  0
 30 23  1  0
 31 24  1  0
 32 25  1  0
  8 13  2  0
  7  3  1  0
 14 10  2  0
M  END
>  <ID>  (1807) 


>  <MOLENAME>  (1807) 
1-HYDROXY-3.6.7-TRIMETHOXY-2.8-DIPRENYLXANTHONE

>  <therap>  (1807) 
nan

>  <ref>  (1807) 
JACS 80:1691 (1958); Aust J Chem 23:2539 (1970); Tetrahedron 27:3919 (1971); Phytochemistry 12:232 (1973)

>  <cas#>  (1807) 
15404-76-9

>  <source>  (1807) 
Garcinia mangostana

>  <status>  (1807) 
undetermined activity

>  <tradename>  (1807) 
nan

>  <SMILES>  (1807) 
COc1c(CC=C(C)C)c(O)c2c(=O)c3c(CC=C(C)C)c(OC)c(OC)cc3oc2c1

>  <standardized_failed>  (1807) 
False

$$$$

     RDKit          2D

 33 35  0  0  0  0  0  0  0  0999 V2000
    5.3292   -3.1250    0.0000 C   0  0  0  0  0  0  0  0  0  0  0  0
    6.0292   -2.7042    0.0000 C   0  0  0  0  0  0  0  0  0  0  0  0
    6.7542   -3.1125    0.0000 C   0  0  0  0  0  0  0  0  0  0  0  0
    4.6042   -2.7125    0.0000 C   0  0  0  0  0  0  0  0  0  0  0  0
    7.4667   -2.7000    0.0000 C   0  0  0  0  0  0  0  0  0  0  0  0
    5.3292   -3.9500    0.0000 C   0  0  0  0  0  0  0  0  0  0  0  0
    6.7542   -3.9417    0.0000 C   0  0  0  0  0  0  0  0  0  0  0  0
    3.8917   -3.1250    0.0000 C   0  0  0  0  0  0  0  0  0  0  0  0
    6.0417   -4.3625    0.0000 O   0  0  0  0  0  0  0  0  0  0  0  0
    8.1792   -3.1000    0.0000 C   0  0  0  0  0  0  0  0  0  0  0  0
    4.6042   -4.3625    0.0000 C   0  0  0  0  0  0  0  0  0  0  0  0
    7.4667   -4.3500    0.0000 C   0  0  0  0  0  0  0  0  0  0  0  0
    3.8917   -3.9500    0.0000 C   0  0  0  0  0  0  0  0  0  0  0  0
    8.1917   -3.9375    0.0000 C   0  0  0  0  0  0  0  0  0  0  0  0
    7.4542   -1.8750    0.0000 C   0  0  0  0  0  0  0  0  0  0  0  0
    3.1792   -2.7125    0.0000 C   0  0  0  0  0  0  0  0  0  0  0  0
    8.1667   -1.4500    0.0000 C   0  0  0  0  0  0  0  0  0  0  0  0
    3.1792   -1.8875    0.0000 C   0  0  0  0  0  0  0  0  0  0  0  0
    6.0292   -1.8792    0.0000 O   0  0  0  0  0  0  0  0  0  0  0  0
    2.4667   -1.4750    0.0000 C   0  0  0  0  0  0  0  0  0  0  0  0
    8.1542   -0.6250    0.0000 C   0  0  0  0  0  0  0  0  0  0  0  0
    4.6042   -1.8875    0.0000 O   0  0  0  0  0  0  0  0  0  0  0  0
    8.8917   -2.6792    0.0000 O   0  0  0  0  0  0  0  0  0  0  0  0
    3.1792   -4.3625    0.0000 O   0  0  0  0  0  0  0  0  0  0  0  0
    8.9042   -4.3417    0.0000 O   0  0  0  0  0  0  0  0  0  0  0  0
    8.8667   -0.2125    0.0000 C   0  0  0  0  0  0  0  0  0  0  0  0
    7.4417   -0.2167    0.0000 C   0  0  0  0  0  0  0  0  0  0  0  0
    2.4667   -0.6500    0.0000 C   0  0  0  0  0  0  0  0  0  0  0  0
    1.7542   -1.8875    0.0000 C   0  0  0  0  0  0  0  0  0  0  0  0
    5.3167   -1.4750    0.0000 C   0  0  0  0  0  0  0  0  0  0  0  0
    9.6042   -3.0875    0.0000 C   0  0  0  0  0  0  0  0  0  0  0  0
    3.1792   -5.1875    0.0000 C   0  0  0  0  0  0  0  0  0  0  0  0
    8.9125   -5.1667    0.0000 C   0  0  0  0  0  0  0  0  0  0  0  0
  2  1  1  0
  3  2  1  0
  4  1  2  0
  5  3  2  0
  6  1  1  0
  7  9  1  0
  8  4  1  0
  9  6  1  0
 10  5  1  0
 11  6  2  0
 12  7  2  0
 13 11  1  0
 14 12  1  0
 15  5  1  0
 16  8  1  0
 17 15  1  0
 18 16  1  0
 19  2  2  0
 20 18  2  0
 21 17  2  0
 22  4  1  0
 23 10  1  0
 24 13  1  0
 25 14  1  0
 26 21  1  0
 27 21  1  0
 28 20  1  0
 29 20  1  0
 30 22  1  0
 31 23  1  0
 32 24  1  0
 33 25  1  0
  8 13  2  0
  7  3  1  0
 14 10  2  0
M  END
>  <ID>  (1808) 


>  <MOLENAME>  (1808) 
MANGOSTIN TRIMETHYL ETHER

>  <therap>  (1808) 
nan

>  <ref>  (1808) 
nan

>  <cas#>  (1808) 
nan

>  <source>  (1808) 
derivative 

>  <status>  (1808) 
undetermined activity

>  <tradename>  (1808) 
nan

>  <SMILES>  (1808) 
COc1c(CC=C(C)C)c(OC)c2c(=O)c3c(CC=C(C)C)c(OC)c(OC)cc3oc2c1

>  <standardized_failed>  (1808) 
False

$$$$

     RDKit          2D

 21 24  0  0  0  0  0  0  0  0999 V2000
    6.6375   -6.2625    0.0000 C   0  0  0  0  0  0  0  0  0  0  0  0
    8.7792   -5.0250    0.0000 C   0  0  0  0  0  0  0  0  0  0  0  0
    6.6375   -7.0875    0.0000 C   0  0  0  0  0  0  0  0  0  0  0  0
    7.3500   -5.8500    0.0000 C   0  0  0  0  0  0  0  0  0  0  0  0
    8.7792   -5.8500    0.0000 C   0  0  0  0  0  0  0  0  0  0  0  0
    8.0625   -6.2625    0.0000 C   0  0  0  0  0  0  0  0  0  0  0  0
    5.9250   -5.8500    0.0000 C   0  0  0  0  0  0  0  0  0  0  0  0
    5.9250   -7.5000    0.0000 C   0  0  0  0  0  0  0  0  0  0  0  0
    9.5625   -4.7625    0.0000 C   0  0  0  0  0  0  0  0  0  0  0  0
    8.0625   -4.6125    0.0000 C   0  0  0  0  0  0  0  0  0  0  0  0
    7.3500   -5.0250    0.0000 C   0  0  0  0  0  0  0  0  0  0  0  0
    8.0625   -7.0875    0.0000 C   0  0  0  0  0  0  0  0  0  0  0  0
    9.5625   -6.1000    0.0000 C   0  0  0  0  0  0  0  0  0  0  0  0
    5.2042   -6.2625    0.0000 C   0  0  0  0  0  0  0  0  0  0  0  0
    5.2042   -7.0875    0.0000 C   0  0  0  0  0  0  0  0  0  0  0  0
    7.3500   -7.5000    0.0000 C   0  0  0  0  0  0  0  0  0  0  0  0
   10.0500   -5.4375    0.0000 C   0  0  0  0  0  0  0  0  0  0  0  0
    9.7917   -4.0292    0.0000 O   0  0  0  0  0  0  0  0  0  0  0  0
    4.4875   -7.5125    0.0000 O   0  0  0  0  0  0  0  0  0  0  0  0
    6.6375   -5.4375    0.0000 C   0  0  0  0  0  0  0  0  0  0  0  0
    8.8125   -4.1750    0.0000 C   0  0  0  0  0  0  0  0  0  0  0  0
  2 10  1  0
  3  1  1  0
  4  1  1  0
  5  6  1  0
  6  4  1  0
  7  1  1  0
  8  3  2  0
  9  2  1  0
 10 11  1  0
 11  4  1  0
 12  6  1  0
 13  5  1  0
 14  7  2  0
 15 14  1  0
 16  3  1  0
 17 13  1  0
 18  9  2  0
 19 15  2  0
  1 20  1  1
  2 21  1  1
 12 16  1  0
  8 15  1  0
  2  5  1  0
  9 17  1  0
M  END
>  <ID>  (1809) 


>  <MOLENAME>  (1809) 
ANDROSTA-1.4-DIEN-3.17-DIONE

>  <therap>  (1809) 
nan

>  <ref>  (1809) 
J Am Chem Soc 80: 6148 (1958); 83: 4627 (1961)

>  <cas#>  (1809) 
897-06-3

>  <source>  (1809) 
mammary neoplasms; cholesterol metabolite

>  <status>  (1809) 
undetermined activity

>  <tradename>  (1809) 
nan

>  <SMILES>  (1809) 
C[C@]12C=CC(=O)C=C1CCC1C2CC[C@]2(C)C(=O)CCC12

>  <standardized_failed>  (1809) 
False

$$$$

     RDKit          2D

 27 28  0  0  0  0  0  0  0  0999 V2000
   -0.4000    0.0625    0.0000 C   0  0  0  0  0  0  0  0  0  0  0  0
    0.2375   -0.3292    0.0000 C   0  0  0  0  0  0  0  0  0  0  0  0
    0.8792    0.0625    0.0000 C   0  0  0  0  0  0  0  0  0  0  0  0
    3.4375    0.0625    0.0000 C   0  0  0  0  0  0  0  0  0  0  0  0
   -4.3000    0.0625    0.0000 C   0  0  0  0  0  0  0  0  0  0  0  0
   -1.7000    0.0625    0.0000 C   0  0  0  0  0  0  0  0  0  0  0  0
    1.5167   -0.3292    0.0000 C   0  0  0  0  0  0  0  0  0  0  0  0
   -1.0458   -0.3292    0.0000 C   0  0  0  0  0  0  0  0  0  0  0  0
   -2.3625   -0.3292    0.0000 C   0  0  0  0  0  0  0  0  0  0  0  0
   -4.3000    0.8125    0.0000 C   0  0  0  0  0  0  0  0  0  0  0  0
    3.4375    0.8125    0.0000 C   0  0  0  0  0  0  0  0  0  0  0  0
   -3.6625   -0.3000    0.0000 C   0  0  0  0  0  0  0  0  0  0  0  0
    2.8000   -0.3292    0.0000 C   0  0  0  0  0  0  0  0  0  0  0  0
    2.1542    0.0625    0.0000 C   0  0  0  0  0  0  0  0  0  0  0  0
   -3.0208    0.0625    0.0000 C   0  0  0  0  0  0  0  0  0  0  0  0
   -1.0458   -1.0792    0.0000 O   0  0  0  0  0  0  0  0  0  0  0  0
    2.8000    1.1708    0.0000 C   0  0  0  0  0  0  0  0  0  0  0  0
   -3.6625    1.2000    0.0000 C   0  0  0  0  0  0  0  0  0  0  0  0
    2.1542    0.8125    0.0000 C   0  0  0  0  0  0  0  0  0  0  0  0
   -3.0208    0.8125    0.0000 C   0  0  0  0  0  0  0  0  0  0  0  0
    0.2375   -1.0792    0.0000 O   0  0  0  0  0  0  0  0  0  0  0  0
    4.1000   -0.3292    0.0000 O   0  0  0  0  0  0  0  0  0  0  0  0
   -4.9708   -0.3292    0.0000 O   0  0  0  0  0  0  0  0  0  0  0  0
    4.1000    1.2000    0.0000 O   0  0  0  0  0  0  0  0  0  0  0  0
   -4.9708    1.2000    0.0000 O   0  0  0  0  0  0  0  0  0  0  0  0
   -4.9708   -1.0792    0.0000 C   0  0  0  0  0  0  0  0  0  0  0  0
    4.7542    0.0333    0.0000 C   0  0  0  0  0  0  0  0  0  0  0  0
  2  1  2  0
  3  2  1  0
  4 13  2  0
  5 12  2  0
  6  8  1  0
  7  3  2  0
  8  1  1  0
  9  6  2  0
 10 18  2  0
 11 17  2  0
 12 15  1  0
 13 14  1  0
 14  7  1  0
 15  9  1  0
 16  8  2  0
 17 19  1  0
 18 20  1  0
 19 14  2  0
 20 15  2  0
 21  2  1  0
 22  4  1  0
 23  5  1  0
 24 11  1  0
 25 10  1  0
 26 23  1  0
 27 22  1  0
  5 10  1  0
 11  4  1  0
M  END
>  <ID>  (1810) 


>  <MOLENAME>  (1810) 
CURCUMIN

>  <therap>  (1810) 
antiedemic, antiinflammatory, bile stimulant; antibacterial, antifungal, lipo/cyclooxygenase inhibitor

>  <ref>  (1810) 
Ber 51: 1347 (1918); J Pharm Pharmacol 5: 448 (1953); Cancer Res 51:813 (1991)

>  <cas#>  (1810) 
458-37-7

>  <source>  (1810) 
Curcuma spp

>  <status>  (1810) 
experimental

>  <tradename>  (1810) 
nan

>  <SMILES>  (1810) 
COc1cc(/C=C/C(=O)/C=C(O)/C=C/c2ccc(O)c(OC)c2)ccc1O

>  <standardized_failed>  (1810) 
False

$$$$

     RDKit          2D

 27 29  0  0  0  0  0  0  0  0999 V2000
    1.5542   -5.4750    0.0000 C   0  0  0  0  0  0  0  0  0  0  0  0
    2.2667   -5.8875    0.0000 C   0  0  0  0  0  0  0  0  0  0  0  0
    2.9792   -5.4667    0.0000 C   0  0  0  0  0  0  0  0  0  0  0  0
    2.9792   -4.6417    0.0000 C   0  0  0  0  0  0  0  0  0  0  0  0
    2.2542   -4.2292    0.0000 O   0  0  0  0  0  0  0  0  0  0  0  0
    1.5542   -4.6500    0.0000 C   0  0  0  0  0  0  0  0  0  0  0  0
    0.8375   -5.8917    0.0000 C   0  0  0  0  0  0  0  0  0  0  0  0
    0.1250   -5.4792    0.0000 C   0  0  0  0  0  0  0  0  0  0  0  0
    0.8375   -4.2375    0.0000 C   0  0  0  0  0  0  0  0  0  0  0  0
    0.1250   -4.6500    0.0000 C   0  0  0  0  0  0  0  0  0  0  0  0
    3.6875   -4.2250    0.0000 C   0  0  0  0  0  0  0  0  0  0  0  0
    2.2667   -6.7125    0.0000 O   0  0  0  0  0  0  0  0  0  0  0  0
    3.7000   -5.8792    0.0000 O   0  0  0  0  0  0  0  0  0  0  0  0
    4.4042   -4.6375    0.0000 C   0  0  0  0  0  0  0  0  0  0  0  0
    3.6792   -3.4042    0.0000 C   0  0  0  0  0  0  0  0  0  0  0  0
    0.8417   -6.7167    0.0000 O   0  0  0  0  0  0  0  0  0  0  0  0
   -0.5958   -5.8917    0.0000 O   0  0  0  0  0  0  0  0  0  0  0  0
   -0.5875   -4.2417    0.0000 O   0  0  0  0  0  0  0  0  0  0  0  0
    5.1125   -3.3917    0.0000 C   0  0  0  0  0  0  0  0  0  0  0  0
    5.1167   -4.2167    0.0000 C   0  0  0  0  0  0  0  0  0  0  0  0
    4.3917   -2.9875    0.0000 C   0  0  0  0  0  0  0  0  0  0  0  0
    5.8250   -2.9750    0.0000 O   0  0  0  0  0  0  0  0  0  0  0  0
    3.7042   -6.7042    0.0000 C   0  0  0  0  0  0  0  0  0  0  0  0
    0.1292   -7.1292    0.0000 C   0  0  0  0  0  0  0  0  0  0  0  0
   -1.3083   -5.4792    0.0000 C   0  0  0  0  0  0  0  0  0  0  0  0
   -0.5875   -3.4167    0.0000 C   0  0  0  0  0  0  0  0  0  0  0  0
    6.5417   -3.3792    0.0000 C   0  0  0  0  0  0  0  0  0  0  0  0
  2  1  1  0
  3  2  1  0
  4  5  1  0
  5  6  1  0
  6  1  2  0
  7  1  1  0
  8  7  2  0
  9  6  1  0
 10  8  1  0
 11  4  1  0
 12  2  2  0
 13  3  1  0
 14 11  2  0
 15 11  1  0
 16  7  1  0
 17  8  1  0
 18 10  1  0
 19 21  1  0
 20 14  1  0
 21 15  2  0
 22 19  1  0
 23 13  1  0
 24 16  1  0
 25 17  1  0
 26 18  1  0
 27 22  1  0
 10  9  2  0
  4  3  2  0
 19 20  2  0
M  END
>  <ID>  (1811) 


>  <MOLENAME>  (1811) 
3.4'.5.6.7-PENTAMETHOXYFLAVONE

>  <therap>  (1811) 
nan

>  <ref>  (1811) 
nan

>  <cas#>  (1811) 
4472-73-5

>  <source>  (1811) 
Citrus spp

>  <status>  (1811) 
undetermined activity

>  <tradename>  (1811) 
nan

>  <SMILES>  (1811) 
COc1ccc(-c2c(OC)c(=O)c3c(cc(OC)c(OC)c3OC)o2)cc1

>  <standardized_failed>  (1811) 
False

$$$$

     RDKit          2D

 27 29  0  0  0  0  0  0  0  0999 V2000
    1.5542   -5.4750    0.0000 C   0  0  0  0  0  0  0  0  0  0  0  0
    2.2667   -5.8875    0.0000 C   0  0  0  0  0  0  0  0  0  0  0  0
    0.8375   -5.8917    0.0000 C   0  0  0  0  0  0  0  0  0  0  0  0
    1.5542   -4.6500    0.0000 C   0  0  0  0  0  0  0  0  0  0  0  0
    2.9792   -4.6417    0.0000 C   0  0  0  0  0  0  0  0  0  0  0  0
    2.9792   -5.4667    0.0000 C   0  0  0  0  0  0  0  0  0  0  0  0
    2.2542   -4.2292    0.0000 O   0  0  0  0  0  0  0  0  0  0  0  0
    0.1250   -5.4792    0.0000 C   0  0  0  0  0  0  0  0  0  0  0  0
    0.8375   -4.2375    0.0000 C   0  0  0  0  0  0  0  0  0  0  0  0
    0.1250   -4.6500    0.0000 C   0  0  0  0  0  0  0  0  0  0  0  0
    3.6875   -4.2250    0.0000 C   0  0  0  0  0  0  0  0  0  0  0  0
    3.6792   -3.4042    0.0000 C   0  0  0  0  0  0  0  0  0  0  0  0
    4.3917   -2.9875    0.0000 C   0  0  0  0  0  0  0  0  0  0  0  0
    2.2667   -6.7125    0.0000 O   0  0  0  0  0  0  0  0  0  0  0  0
    5.1125   -3.3917    0.0000 C   0  0  0  0  0  0  0  0  0  0  0  0
    4.4042   -4.6375    0.0000 C   0  0  0  0  0  0  0  0  0  0  0  0
    5.1167   -4.2167    0.0000 C   0  0  0  0  0  0  0  0  0  0  0  0
    0.8417   -6.7167    0.0000 O   0  0  0  0  0  0  0  0  0  0  0  0
   -0.5958   -5.8917    0.0000 O   0  0  0  0  0  0  0  0  0  0  0  0
   -0.5875   -4.2417    0.0000 O   0  0  0  0  0  0  0  0  0  0  0  0
    4.3792   -2.1625    0.0000 O   0  0  0  0  0  0  0  0  0  0  0  0
    5.8250   -2.9750    0.0000 O   0  0  0  0  0  0  0  0  0  0  0  0
    0.1292   -7.1292    0.0000 C   0  0  0  0  0  0  0  0  0  0  0  0
   -1.3083   -5.4792    0.0000 C   0  0  0  0  0  0  0  0  0  0  0  0
   -0.5875   -3.4167    0.0000 C   0  0  0  0  0  0  0  0  0  0  0  0
    3.6625   -1.7542    0.0000 C   0  0  0  0  0  0  0  0  0  0  0  0
    6.5417   -3.3792    0.0000 C   0  0  0  0  0  0  0  0  0  0  0  0
  2  1  1  0
  3  1  2  0
  4  1  1  0
  5  7  1  0
  6  2  1  0
  7  4  1  0
  8  3  1  0
  9  4  2  0
 10  9  1  0
 11  5  1  0
 12 11  2  0
 13 12  1  0
 14  2  2  0
 15 17  1  0
 16 11  1  0
 17 16  2  0
 18  3  1  0
 19  8  1  0
 20 10  1  0
 21 13  1  0
 22 15  1  0
 23 18  1  0
 24 19  1  0
 25 20  1  0
 26 21  1  0
 27 22  1  0
  5  6  2  0
  8 10  2  0
 13 15  2  0
M  END
>  <ID>  (1812) 


>  <MOLENAME>  (1812) 
SINENSETIN

>  <therap>  (1812) 
nan

>  <ref>  (1812) 
nan

>  <cas#>  (1812) 
2306-27-6

>  <source>  (1812) 
Citrus spp

>  <status>  (1812) 
undetermined activity

>  <tradename>  (1812) 
nan

>  <SMILES>  (1812) 
COc1c(OC)cc(-c2cc(=O)c3c(OC)c(OC)c(OC)cc3o2)cc1

>  <standardized_failed>  (1812) 
False

$$$$

     RDKit          2D

 31 33  0  0  0  0  0  0  0  0999 V2000
    3.4750   -0.5167    0.0000 C   0  0  0  0  0  0  0  0  0  0  0  0
    2.7625   -1.7542    0.0000 C   0  0  0  0  0  0  0  0  0  0  0  0
    3.4750   -1.3417    0.0000 C   0  0  0  0  0  0  0  0  0  0  0  0
    4.9042   -2.9750    0.0000 C   0  0  0  0  0  0  0  0  0  0  0  0
    1.3375   -4.2375    0.0000 C   0  0  0  0  0  0  0  0  0  0  0  0
    2.7667   -2.5792    0.0000 C   0  0  0  0  0  0  0  0  0  0  0  0
    2.0542   -2.9917    0.0000 C   0  0  0  0  0  0  0  0  0  0  0  0
    3.4792   -2.9875    0.0000 C   0  0  0  0  0  0  0  0  0  0  0  0
    4.1875   -2.5667    0.0000 C   0  0  0  0  0  0  0  0  0  0  0  0
    2.0542   -3.8250    0.0000 C   0  0  0  0  0  0  0  0  0  0  0  0
    4.1917   -0.1042    0.0000 C   0  0  0  0  0  0  0  0  0  0  0  0
    2.7625   -0.1042    0.0000 C   0  0  0  0  0  0  0  0  0  0  0  0
    2.0417   -1.3500    0.0000 C   0  0  0  0  0  0  0  0  0  0  0  0
    5.6167   -2.5542    0.0000 C   0  0  0  0  0  0  0  0  0  0  0  0
    1.3375   -5.0625    0.0000 C   0  0  0  0  0  0  0  0  0  0  0  0
    2.0417   -0.5167    0.0000 C   0  0  0  0  0  0  0  0  0  0  0  0
    4.9125   -3.8042    0.0000 C   0  0  0  0  0  0  0  0  0  0  0  0
    0.6250   -3.8250    0.0000 C   0  0  0  0  0  0  0  0  0  0  0  0
    1.3375   -2.5792    0.0000 C   0  0  0  0  0  0  0  0  0  0  0  0
    3.4792   -3.8125    0.0000 C   0  0  0  0  0  0  0  0  0  0  0  0
    4.1917    0.7208    0.0000 O   0  0  0  0  0  0  0  0  0  0  0  0
    5.6042   -1.7292    0.0000 O   0  0  0  0  0  0  0  0  0  0  0  0
    2.0542   -5.4750    0.0000 O   0  0  0  0  0  0  0  0  0  0  0  0
    2.7625    0.7208    0.0000 O   0  0  0  0  0  0  0  0  0  0  0  0
    0.6250   -3.0000    0.0000 C   0  0  0  0  0  0  0  0  0  0  0  0
    4.1917   -4.2167    0.0000 C   0  0  0  0  0  0  0  0  0  0  0  0
    4.9042   -0.5167    0.0000 O   0  0  0  0  0  0  0  0  0  0  0  0
    0.6250   -5.4750    0.0000 O   0  0  0  0  0  0  0  0  0  0  0  0
    6.3292   -2.9667    0.0000 O   0  0  0  0  0  0  0  0  0  0  0  0
    5.6292   -4.2167    0.0000 O   0  0  0  0  0  0  0  0  0  0  0  0
   -0.0958   -4.2375    0.0000 O   0  0  0  0  0  0  0  0  0  0  0  0
  2  3  1  0
  3  1  2  0
  4  9  2  0
  5 10  2  0
  6  2  2  0
  7  6  1  0
  8  6  1  0
  9  8  1  0
 10  7  1  0
 11  1  1  0
 12  1  1  0
 13 16  2  0
 14  4  1  0
 15  5  1  0
 16 12  1  0
 17 26  2  0
 18 25  2  0
 19  7  2  0
 20  8  2  0
 21 11  2  0
 22 14  2  0
 23 15  2  0
 24 12  2  0
 25 19  1  0
 26 20  1  0
 27 11  1  0
 28 15  1  0
 29 14  1  0
 30 17  1  0
 31 18  1  0
 13  2  1  0
 17  4  1  0
  5 18  1  0
M  END
>  <ID>  (1813) 


>  <MOLENAME>  (1813) 
AURIN TRICARBOXYLIC ACID

>  <therap>  (1813) 
apoptosis inhibitor, topoisomerase II inhibitor

>  <ref>  (1813) 
Eur J Biochem 248:30 (1997)

>  <cas#>  (1813) 
4431-00-9

>  <source>  (1813) 
synthetic

>  <status>  (1813) 
experimental

>  <tradename>  (1813) 
nan

>  <SMILES>  (1813) 
O=C(O)C1=CC(=C(c2ccc(O)c(C(=O)O)c2)c2ccc(O)c(C(=O)O)c2)C=CC1=O

>  <standardized_failed>  (1813) 
False

$$$$

     RDKit          2D

 29 31  0  0  0  0  0  0  0  0999 V2000
    1.5542   -5.4750    0.0000 C   0  0  0  0  0  0  0  0  0  0  0  0
    2.2667   -5.8875    0.0000 C   0  0  0  0  0  0  0  0  0  0  0  0
    2.9792   -5.4667    0.0000 C   0  0  0  0  0  0  0  0  0  0  0  0
    2.9792   -4.6417    0.0000 C   0  0  0  0  0  0  0  0  0  0  0  0
    2.2542   -4.2292    0.0000 O   0  0  0  0  0  0  0  0  0  0  0  0
    1.5542   -4.6500    0.0000 C   0  0  0  0  0  0  0  0  0  0  0  0
    0.8375   -5.8917    0.0000 C   0  0  0  0  0  0  0  0  0  0  0  0
    0.1250   -5.4792    0.0000 C   0  0  0  0  0  0  0  0  0  0  0  0
    3.6875   -4.2250    0.0000 C   0  0  0  0  0  0  0  0  0  0  0  0
    0.8375   -4.2375    0.0000 C   0  0  0  0  0  0  0  0  0  0  0  0
    0.1250   -4.6500    0.0000 C   0  0  0  0  0  0  0  0  0  0  0  0
    3.6792   -3.4042    0.0000 C   0  0  0  0  0  0  0  0  0  0  0  0
    4.3917   -2.9875    0.0000 C   0  0  0  0  0  0  0  0  0  0  0  0
    2.2667   -6.7125    0.0000 O   0  0  0  0  0  0  0  0  0  0  0  0
    5.1125   -3.3917    0.0000 C   0  0  0  0  0  0  0  0  0  0  0  0
    4.4042   -4.6375    0.0000 C   0  0  0  0  0  0  0  0  0  0  0  0
    3.7000   -5.8792    0.0000 O   0  0  0  0  0  0  0  0  0  0  0  0
    5.1167   -4.2167    0.0000 C   0  0  0  0  0  0  0  0  0  0  0  0
    0.8417   -6.7167    0.0000 O   0  0  0  0  0  0  0  0  0  0  0  0
   -0.5958   -5.8917    0.0000 O   0  0  0  0  0  0  0  0  0  0  0  0
   -0.5875   -4.2417    0.0000 O   0  0  0  0  0  0  0  0  0  0  0  0
    4.3792   -2.1625    0.0000 O   0  0  0  0  0  0  0  0  0  0  0  0
    5.8250   -2.9750    0.0000 O   0  0  0  0  0  0  0  0  0  0  0  0
    3.7042   -6.7042    0.0000 C   0  0  0  0  0  0  0  0  0  0  0  0
    0.1292   -7.1292    0.0000 C   0  0  0  0  0  0  0  0  0  0  0  0
   -1.3083   -5.4792    0.0000 C   0  0  0  0  0  0  0  0  0  0  0  0
   -0.5875   -3.4167    0.0000 C   0  0  0  0  0  0  0  0  0  0  0  0
    5.0917   -1.7417    0.0000 C   0  0  0  0  0  0  0  0  0  0  0  0
    6.5417   -3.3792    0.0000 C   0  0  0  0  0  0  0  0  0  0  0  0
  2  1  1  0
  3  2  1  0
  4  5  1  0
  5  6  1  0
  6  1  2  0
  7  1  1  0
  8  7  2  0
  9  4  1  0
 10  6  1  0
 11  8  1  0
 12  9  2  0
 13 12  1  0
 14  2  2  0
 15 18  1  0
 16  9  1  0
 17  3  1  0
 18 16  2  0
 19  7  1  0
 20  8  1  0
 21 11  1  0
 22 13  1  0
 23 15  1  0
 24 17  1  0
 25 19  1  0
 26 20  1  0
 27 21  1  0
 28 22  1  0
 29 23  1  0
 11 10  2  0
  4  3  2  0
 13 15  2  0
M  END
>  <ID>  (1814) 


>  <MOLENAME>  (1814) 
HEXAMETHYLQUERCETAGETIN

>  <therap>  (1814) 
nan

>  <ref>  (1814) 
Phytochemistry 11:2283 (1972)

>  <cas#>  (1814) 
1251-84-9

>  <source>  (1814) 
Citrus spp

>  <status>  (1814) 
undetermined activity

>  <tradename>  (1814) 
nan

>  <SMILES>  (1814) 
COc1c(OC)cc(-c2c(OC)c(=O)c3c(cc(OC)c(OC)c3OC)o2)cc1

>  <standardized_failed>  (1814) 
False

$$$$

     RDKit          2D

 12 13  0  0  0  0  0  0  0  0999 V2000
    4.5667   -2.2667    0.0000 C   0  0  0  0  0  0  0  0  0  0  0  0
    3.8542   -2.6792    0.0000 C   0  0  0  0  0  0  0  0  0  0  0  0
    2.4167   -2.6875    0.0000 C   0  0  0  0  0  0  0  0  0  0  0  0
    3.1375   -2.2667    0.0000 C   0  0  0  0  0  0  0  0  0  0  0  0
    2.4250   -3.5125    0.0000 C   0  0  0  0  0  0  0  0  0  0  0  0
    1.6375   -2.4375    0.0000 O   0  0  0  0  0  0  0  0  0  0  0  0
    1.6417   -3.7667    0.0000 O   0  0  0  0  0  0  0  0  0  0  0  0
    1.1542   -3.1042    0.0000 C   0  0  0  0  0  0  0  0  0  0  0  0
    4.5625   -1.4417    0.0000 O   0  0  0  0  0  0  0  0  0  0  0  0
    3.8542   -3.5125    0.0000 C   0  0  0  0  0  0  0  0  0  0  0  0
    3.1375   -3.9250    0.0000 C   0  0  0  0  0  0  0  0  0  0  0  0
    5.2792   -2.6750    0.0000 O   0  0  0  0  0  0  0  0  0  0  0  0
  2  1  1  0
  3  4  1  0
  4  2  2  0
  5 11  1  0
  6  3  1  0
  7  5  1  0
  8  6  1  0
  9  1  2  0
 10  2  1  0
 11 10  2  0
 12  1  1  0
  5  3  2  0
  7  8  1  0
M  END
>  <ID>  (1815) 


>  <MOLENAME>  (1815) 
PIPERONYLIC ACID

>  <therap>  (1815) 
nan

>  <ref>  (1815) 
J Chem Soc 1950: 2376

>  <cas#>  (1815) 
94-53-1

>  <source>  (1815) 
Piper longum, Cinnamumum spp

>  <status>  (1815) 
undetermined activity

>  <tradename>  (1815) 
nan

>  <SMILES>  (1815) 
O=C(O)c1cc2c(cc1)OCO2

>  <standardized_failed>  (1815) 
False

$$$$

     RDKit          2D

 20 22  0  0  0  0  0  0  0  0999 V2000
    5.3750   -4.2917    0.0000 O   0  0  0  0  0  0  0  0  0  0  0  0
    4.6542   -3.8750    0.0000 C   0  0  0  0  0  0  0  0  0  0  0  0
    4.6542   -3.0417    0.0000 C   0  0  0  0  0  0  0  0  0  0  0  0
    6.0917   -3.8750    0.0000 C   0  0  0  0  0  0  0  0  0  0  0  0
    5.3667   -2.6292    0.0000 C   0  0  0  0  0  0  0  0  0  0  0  0
    3.9417   -2.6292    0.0000 C   0  0  0  0  0  0  0  0  0  0  0  0
    6.0917   -3.0417    0.0000 C   0  0  0  0  0  0  0  0  0  0  0  0
    3.9417   -4.2875    0.0000 C   0  0  0  0  0  0  0  0  0  0  0  0
    3.2292   -3.0417    0.0000 C   0  0  0  0  0  0  0  0  0  0  0  0
    6.8125   -4.2792    0.0000 C   0  0  0  0  0  0  0  0  0  0  0  0
    3.2292   -3.8750    0.0000 C   0  0  0  0  0  0  0  0  0  0  0  0
    7.5250   -3.8667    0.0000 C   0  0  0  0  0  0  0  0  0  0  0  0
    6.8125   -5.1042    0.0000 C   0  0  0  0  0  0  0  0  0  0  0  0
    3.9417   -1.8042    0.0000 O   0  0  0  0  0  0  0  0  0  0  0  0
    6.8042   -2.6250    0.0000 O   0  0  0  0  0  0  0  0  0  0  0  0
    8.2417   -5.1042    0.0000 C   0  0  0  0  0  0  0  0  0  0  0  0
    7.5250   -5.5167    0.0000 C   0  0  0  0  0  0  0  0  0  0  0  0
    8.2375   -4.2750    0.0000 C   0  0  0  0  0  0  0  0  0  0  0  0
    2.5167   -4.2792    0.0000 O   0  0  0  0  0  0  0  0  0  0  0  0
    8.9542   -5.5125    0.0000 O   0  0  0  0  0  0  0  0  0  0  0  0
  2  1  1  0
  3  2  2  0
  4  1  1  1
  5  7  1  0
  6  3  1  0
  7  4  1  0
  8  2  1  0
  9 11  1  0
  4 10  1  0
 11  8  2  0
 12 10  2  0
 13 10  1  0
 14  6  1  0
  7 15  1  1
 16 17  1  0
 17 13  2  0
 18 12  1  0
 19 11  1  0
 20 16  1  0
  3  5  1  0
 18 16  2  0
  9  6  2  0
M  END
>  <ID>  (1816) 


>  <MOLENAME>  (1816) 
EPIAFZELECHIN (2R.3R)(-)

>  <therap>  (1816) 
nan

>  <ref>  (1816) 
J Chem Soc 1955: 2948; Aust. J. Chem 13: 390 (1960); Phytochemistry 11: 2333 (1972)

>  <cas#>  (1816) 
24808-04-6

>  <source>  (1816) 
Larix sibirica, Actinidia chinensis, Juniperus communis, Cassia javanica

>  <status>  (1816) 
undetermined activity

>  <tradename>  (1816) 
nan

>  <SMILES>  (1816) 
Oc1ccc([C@H]2Oc3c(C[C@H]2O)c(O)cc(O)c3)cc1

>  <standardized_failed>  (1816) 
False

$$$$

     RDKit          2D

 24 25  0  0  0  0  0  0  0  0999 V2000
    2.8542   -2.6542    0.0000 C   0  0  0  0  0  0  0  0  0  0  0  0
    3.6750   -2.6542    0.0000 C   0  0  0  0  0  0  0  0  0  0  0  0
    2.4417   -1.9417    0.0000 C   0  0  0  0  0  0  0  0  0  0  0  0
    2.4417   -3.3667    0.0000 C   0  0  0  0  0  0  0  0  0  0  0  0
    4.0875   -3.3667    0.0000 C   0  0  0  0  0  0  0  0  0  0  0  0
    4.0792   -1.9417    0.0000 C   0  0  0  0  0  0  0  0  0  0  0  0
    1.6167   -1.9417    0.0000 C   0  0  0  0  0  0  0  0  0  0  0  0
    4.9042   -3.3667    0.0000 C   0  0  0  0  0  0  0  0  0  0  0  0
    4.9042   -1.9375    0.0000 C   0  0  0  0  0  0  0  0  0  0  0  0
    1.6167   -3.3667    0.0000 C   0  0  0  0  0  0  0  0  0  0  0  0
    1.2042   -2.6542    0.0000 C   0  0  0  0  0  0  0  0  0  0  0  0
    5.3250   -2.6542    0.0000 C   0  0  0  0  0  0  0  0  0  0  0  0
    2.8542   -1.2292    0.0000 O   0  0  0  0  0  0  0  0  0  0  0  0
    3.6667   -1.2292    0.0000 O   0  0  0  0  0  0  0  0  0  0  0  0
    3.6667   -4.0792    0.0000 O   0  0  0  0  0  0  0  0  0  0  0  0
    2.8417   -4.0792    0.0000 O   0  0  0  0  0  0  0  0  0  0  0  0
    0.3792   -2.6542    0.0000 O   0  0  0  0  0  0  0  0  0  0  0  0
    6.1500   -2.6542    0.0000 O   0  0  0  0  0  0  0  0  0  0  0  0
    4.0792   -0.5125    0.0000 C   0  0  0  0  0  0  0  0  0  0  0  0
    4.0792   -4.8000    0.0000 C   0  0  0  0  0  0  0  0  0  0  0  0
    2.4417   -4.7917    0.0000 C   0  0  0  0  0  0  0  0  0  0  0  0
    2.4375   -0.5125    0.0000 C   0  0  0  0  0  0  0  0  0  0  0  0
    6.5625   -3.3667    0.0000 C   0  0  0  0  0  0  0  0  0  0  0  0
   -0.0333   -3.3750    0.0000 C   0  0  0  0  0  0  0  0  0  0  0  0
  2  1  1  0
  3  1  2  0
  4  1  1  0
  5  2  2  0
  6  2  1  0
  7  3  1  0
  8  5  1  0
  9  6  2  0
 10  4  2  0
 11 10  1  0
 12  9  1  0
 13  3  1  0
 14  6  1  0
 15  5  1  0
 16  4  1  0
 17 11  1  0
 18 12  1  0
 19 14  1  0
 20 15  1  0
 21 16  1  0
 22 13  1  0
 23 18  1  0
 24 17  1  0
  7 11  2  0
  8 12  2  0
M  END
>  <ID>  (1817) 


>  <MOLENAME>  (1817) 
DIFUCOL HEXAMETHYL ETHER

>  <therap>  (1817) 
nan

>  <ref>  (1817) 
J Chem Soc 1969: 2403; Phytochemistry 31: 279

>  <cas#>  (1817) 
14262-07-8

>  <source>  (1817) 
derivative

>  <status>  (1817) 
undetermined activity

>  <tradename>  (1817) 
nan

>  <SMILES>  (1817) 
COc1cc(OC)c(-c2c(OC)cc(OC)cc2OC)c(OC)c1

>  <standardized_failed>  (1817) 
False

$$$$

     RDKit          2D

 35 40  0  0  0  0  0  0  0  0999 V2000
    3.4417   -5.3542    0.0000 C   0  0  0  0  0  0  0  0  0  0  0  0
    6.2167   -4.7542    0.0000 C   0  0  0  0  0  0  0  0  0  0  0  0
    3.4292   -6.3750    0.0000 C   0  0  0  0  0  0  0  0  0  0  0  0
    4.3667   -4.7542    0.0000 C   0  0  0  0  0  0  0  0  0  0  0  0
    7.1667   -4.1917    0.0000 C   0  0  0  0  0  0  0  0  0  0  0  0
    4.3792   -5.8417    0.0000 C   0  0  0  0  0  0  0  0  0  0  0  0
    5.2667   -5.3542    0.0000 O   0  0  0  0  0  0  0  0  0  0  0  0
    7.1667   -3.1250    0.0000 C   0  0  0  0  0  0  0  0  0  0  0  0
    5.3042   -4.1917    0.0000 C   0  0  0  0  0  0  0  0  0  0  0  0
    2.5042   -4.7542    0.0000 C   0  0  0  0  0  0  0  0  0  0  0  0
    3.4292   -4.1917    0.0000 C   0  0  0  0  0  0  0  0  0  0  0  0
    8.0917   -2.5625    0.0000 C   0  0  0  0  0  0  0  0  0  0  0  0
    6.2167   -6.3792    0.0000 C   0  0  0  0  0  0  0  0  0  0  0  0
    8.0917   -4.7542    0.0000 C   0  0  0  0  0  0  0  0  0  0  0  0
    9.0417   -3.1250    0.0000 O   0  0  0  0  0  0  0  0  0  0  0  0
    8.0917   -1.7375    0.0000 C   0  0  0  0  0  0  0  0  0  0  0  0
    9.0417   -4.1917    0.0000 C   0  0  0  0  0  0  0  0  0  0  0  0
    6.2167   -2.5625    0.0000 C   0  0  0  0  0  0  0  0  0  0  0  0
    5.3042   -3.1250    0.0000 C   0  0  0  0  0  0  0  0  0  0  0  0
    3.4292   -3.1250    0.0000 C   0  0  0  0  0  0  0  0  0  0  0  0
    2.5167   -2.5625    0.0000 C   0  0  0  0  0  0  0  0  0  0  0  0
    5.2917   -6.0417    0.0000 O   0  0  0  0  0  0  0  0  0  0  0  0
    8.8000   -0.9667    0.0000 C   0  0  0  0  0  0  0  0  0  0  0  0
    7.0792   -1.2375    0.0000 C   0  0  0  0  0  0  0  0  0  0  0  0
    2.4292   -6.0125    0.0000 O   0  0  0  0  0  0  0  0  0  0  0  0
    8.3000    0.0083    0.0000 O   0  0  0  0  0  0  0  0  0  0  0  0
    9.9917   -4.7542    0.0000 O   0  0  0  0  0  0  0  0  0  0  0  0
    7.2500   -0.1792    0.0000 C   0  0  0  0  0  0  0  0  0  0  0  0
    2.5167   -1.4917    0.0000 O   0  0  0  0  0  0  0  0  0  0  0  0
    4.3792   -3.8167    0.0000 C   0  0  0  0  0  0  0  0  0  0  0  0
    7.1667   -2.0250    0.0000 C   0  0  0  0  0  0  0  0  0  0  0  0
    2.5042   -3.7125    0.0000 C   0  0  0  0  0  0  0  0  0  0  0  0
    1.7167   -5.2750    0.0000 C   0  0  0  0  0  0  0  0  0  0  0  0
    1.6042   -3.1250    0.0000 O   0  0  0  0  0  0  0  0  0  0  0  0
    0.7417   -2.6250    0.0000 C   0  0  0  0  0  0  0  0  0  0  0  0
  2  7  1  0
  3  1  1  0
  4 11  1  0
  5  2  1  0
  6  3  1  0
  7  1  1  0
  8  5  1  0
  9  2  1  0
 10  1  1  0
 11 10  1  0
 12  8  1  0
 13  3  1  0
 14  5  2  0
 15 17  1  0
 12 16  1  0
 17 14  1  0
 18 19  1  0
 19  9  1  0
 11 20  1  6
 21 20  1  0
 22  6  2  0
 23 16  2  0
 24 16  1  0
 25  1  1  0
 26 23  1  0
 27 17  2  0
 28 24  2  0
 29 21  2  0
  4 30  1  6
  8 31  1  6
 32 10  1  0
 33 10  1  0
 34 21  1  0
 35 34  1  0
  2 13  1  0
  4  6  1  0
  9  4  1  0
  8 18  1  0
 12 15  1  6
 28 26  1  0
M  END
>  <ID>  (1818) 


>  <MOLENAME>  (1818) 
8beta-HYDROXYCARAPIN. 3.8-HEMIACETAL

>  <therap>  (1818) 
nan

>  <ref>  (1818) 
nan

>  <cas#>  (1818) 
nan

>  <source>  (1818) 
derivative

>  <status>  (1818) 
undetermined activity

>  <tradename>  (1818) 
nan

>  <SMILES>  (1818) 
COC(=O)C[C@H]1C(C)(C)C2(O)OC34CC2C(=O)[C@]1(C)C3CC[C@]1(C)C4=CC(=O)O[C@H]1c1cocc1

>  <standardized_failed>  (1818) 
False

$$$$

     RDKit          2D

 34 38  0  0  0  0  0  0  0  0999 V2000
    4.3917   -4.5167    0.0000 C   0  0  0  0  0  0  0  0  0  0  0  0
    6.2167   -4.5167    0.0000 C   0  0  0  0  0  0  0  0  0  0  0  0
    7.1542   -3.9792    0.0000 C   0  0  0  0  0  0  0  0  0  0  0  0
    4.3917   -5.5625    0.0000 C   0  0  0  0  0  0  0  0  0  0  0  0
    3.4667   -6.1167    0.0000 C   0  0  0  0  0  0  0  0  0  0  0  0
    7.1542   -2.9000    0.0000 C   0  0  0  0  0  0  0  0  0  0  0  0
    5.3042   -3.9792    0.0000 C   0  0  0  0  0  0  0  0  0  0  0  0
    3.4667   -3.9792    0.0000 C   0  0  0  0  0  0  0  0  0  0  0  0
    2.5417   -5.5625    0.0000 C   0  0  0  0  0  0  0  0  0  0  0  0
    2.5417   -4.5167    0.0000 C   0  0  0  0  0  0  0  0  0  0  0  0
    8.0667   -2.3625    0.0000 C   0  0  0  0  0  0  0  0  0  0  0  0
    6.2167   -6.5625    0.0000 C   0  0  0  0  0  0  0  0  0  0  0  0
    9.0167   -2.9000    0.0000 O   0  0  0  0  0  0  0  0  0  0  0  0
    8.0667   -1.5375    0.0000 C   0  0  0  0  0  0  0  0  0  0  0  0
    9.0167   -3.9792    0.0000 C   0  0  0  0  0  0  0  0  0  0  0  0
    6.2167   -2.3625    0.0000 C   0  0  0  0  0  0  0  0  0  0  0  0
    5.3042   -2.9000    0.0000 C   0  0  0  0  0  0  0  0  0  0  0  0
    8.0667   -4.5167    0.0000 C   0  0  0  0  0  0  0  0  0  0  0  0
    3.4667   -2.9000    0.0000 C   0  0  0  0  0  0  0  0  0  0  0  0
    2.5542   -2.3625    0.0000 C   0  0  0  0  0  0  0  0  0  0  0  0
    5.2542   -6.0667    0.0000 O   0  0  0  0  0  0  0  0  0  0  0  0
    8.7667   -0.7667    0.0000 C   0  0  0  0  0  0  0  0  0  0  0  0
    1.6667   -6.0292    0.0000 O   0  0  0  0  0  0  0  0  0  0  0  0
    7.0667   -1.0500    0.0000 C   0  0  0  0  0  0  0  0  0  0  0  0
    8.2667    0.1833    0.0000 O   0  0  0  0  0  0  0  0  0  0  0  0
    9.9542   -4.5167    0.0000 O   0  0  0  0  0  0  0  0  0  0  0  0
    7.2292   -0.0167    0.0000 C   0  0  0  0  0  0  0  0  0  0  0  0
    2.5542   -1.3000    0.0000 O   0  0  0  0  0  0  0  0  0  0  0  0
    3.4042   -5.0292    0.0000 C   0  0  0  0  0  0  0  0  0  0  0  0
    7.1542   -1.8167    0.0000 C   0  0  0  0  0  0  0  0  0  0  0  0
    2.5417   -3.4792    0.0000 C   0  0  0  0  0  0  0  0  0  0  0  0
    1.7542   -5.0167    0.0000 C   0  0  0  0  0  0  0  0  0  0  0  0
    1.6542   -2.9000    0.0000 O   0  0  0  0  0  0  0  0  0  0  0  0
    0.8042   -2.4125    0.0000 C   0  0  0  0  0  0  0  0  0  0  0  0
  2  7  1  0
  3  2  2  0
  1  4  1  0
  5  4  1  0
  6 16  1  0
  7  1  1  0
  8  1  1  0
  9 10  1  0
 10  8  1  0
 11  6  1  0
 12  2  1  0
 11 13  1  6
 11 14  1  0
 15 18  1  0
 16 17  1  0
 17  7  1  0
 18  3  1  0
  8 19  1  6
 20 19  1  0
 21  4  2  0
 22 14  2  0
 23  9  2  0
 24 14  1  0
 25 22  1  0
 26 15  2  0
 27 24  2  0
 28 20  2  0
  1 29  1  1
  6 30  1  6
 31 10  1  0
 32 10  1  0
 33 20  1  0
 34 33  1  0
  5  9  1  0
  5 12  1  1
  6  3  1  0
 13 15  1  0
 27 25  1  0
M  END
>  <ID>  (1819) 


>  <MOLENAME>  (1819) 
MEXICANOLIDE

>  <therap>  (1819) 
nan

>  <ref>  (1819) 
Tetrahedron 24: 1489 (1968)

>  <cas#>  (1819) 
1915-67-9

>  <source>  (1819) 
Meliaceae spp

>  <status>  (1819) 
undetermined activity

>  <tradename>  (1819) 
nan

>  <SMILES>  (1819) 
COC(=O)C[C@H]1C(C)(C)C(=O)[C@@H]2CC3=C4CC(=O)O[C@@H](c5cocc5)[C@]4(C)CCC3[C@]1(C)C2=O

>  <standardized_failed>  (1819) 
False

$$$$

     RDKit          2D

 52 58  0  0  0  0  0  0  0  0999 V2000
    7.2500   -1.6542    0.0000 C   0  0  0  0  0  0  0  0  0  0  0  0
    6.4125   -1.6542    0.0000 C   0  0  0  0  0  0  0  0  0  0  0  0
    6.1000   -3.1417    0.0000 C   0  0  0  0  0  0  0  0  0  0  0  0
    5.9917   -0.9167    0.0000 C   0  0  0  0  0  0  0  0  0  0  0  0
    5.9042   -2.3167    0.0000 C   0  0  0  0  0  0  0  0  0  0  0  0
    4.7292   -1.6542    0.0000 O   0  0  0  0  0  0  0  0  0  0  0  0
    4.6875   -3.4500    0.0000 O   0  0  0  0  0  0  0  0  0  0  0  0
    3.8917   -1.6542    0.0000 C   0  0  0  0  0  0  0  0  0  0  0  0
    4.0667   -3.9917    0.0000 C   0  0  0  0  0  0  0  0  0  0  0  0
    7.7750   -2.3167    0.0000 C   0  0  0  0  0  0  0  0  0  0  0  0
    5.1417   -0.9167    0.0000 C   0  0  0  0  0  0  0  0  0  0  0  0
    4.2417   -4.8167    0.0000 C   0  0  0  0  0  0  0  0  0  0  0  0
    3.4667   -0.9167    0.0000 C   0  0  0  0  0  0  0  0  0  0  0  0
    5.4875   -3.7042    0.0000 C   0  0  0  0  0  0  0  0  0  0  0  0
    7.5917   -3.1417    0.0000 C   0  0  0  0  0  0  0  0  0  0  0  0
    6.8292   -3.4792    0.0000 C   0  0  0  0  0  0  0  0  0  0  0  0
    5.6500   -4.5250    0.0000 C   0  0  0  0  0  0  0  0  0  0  0  0
    7.6792   -0.9167    0.0000 C   0  0  0  0  0  0  0  0  0  0  0  0
    6.6417   -5.5500    0.0000 C   0  0  0  0  0  0  0  0  0  0  0  0
    5.0292   -5.0500    0.0000 C   0  0  0  0  0  0  0  0  0  0  0  0
    6.4125   -0.2042    0.0000 C   0  0  0  0  0  0  0  0  0  0  0  0
    7.4000   -5.7917    0.0000 C   0  0  0  0  0  0  0  0  0  0  0  0
    8.9042   -6.2792    0.0000 C   0  0  0  0  0  0  0  0  0  0  0  0
    3.8917   -0.2042    0.0000 C   0  0  0  0  0  0  0  0  0  0  0  0
    6.4792   -4.7750    0.0000 O   0  0  0  0  0  0  0  0  0  0  0  0
    3.6417   -5.3792    0.0000 C   0  0  0  0  0  0  0  0  0  0  0  0
    2.6292   -0.9167    0.0000 C   0  0  0  0  0  0  0  0  0  0  0  0
    7.2500   -0.2042    0.0000 C   0  0  0  0  0  0  0  0  0  0  0  0
    4.7292   -0.2042    0.0000 C   0  0  0  0  0  0  0  0  0  0  0  0
    8.3125   -6.8042    0.0000 C   0  0  0  0  0  0  0  0  0  0  0  0
    8.7292   -5.4917    0.0000 C   0  0  0  0  0  0  0  0  0  0  0  0
    3.2542   -3.7417    0.0000 C   0  0  0  0  0  0  0  0  0  0  0  0
    3.4667   -2.4167    0.0000 C   0  0  0  0  0  0  0  0  0  0  0  0
    7.5625   -6.5500    0.0000 C   0  0  0  0  0  0  0  0  0  0  0  0
    7.9875   -5.2625    0.0000 C   0  0  0  0  0  0  0  0  0  0  0  0
    2.8625   -5.1167    0.0000 C   0  0  0  0  0  0  0  0  0  0  0  0
    2.2125   -1.6542    0.0000 C   0  0  0  0  0  0  0  0  0  0  0  0
    2.6292   -2.4167    0.0000 C   0  0  0  0  0  0  0  0  0  0  0  0
    2.6500   -4.3042    0.0000 C   0  0  0  0  0  0  0  0  0  0  0  0
    8.6125   -2.1250    0.0000 O   0  0  0  0  0  0  0  0  0  0  0  0
    6.1125   -6.0250    0.0000 O   0  0  0  0  0  0  0  0  0  0  0  0
    8.2375   -3.6792    0.0000 O   0  0  0  0  0  0  0  0  0  0  0  0
    8.5167   -0.9167    0.0000 O   0  0  0  0  0  0  0  0  0  0  0  0
    9.6417   -6.5125    0.0000 O   0  0  0  0  0  0  0  0  0  0  0  0
    3.8125   -6.2292    0.0000 O   0  0  0  0  0  0  0  0  0  0  0  0
    2.1917   -0.2042    0.0000 O   0  0  0  0  0  0  0  0  0  0  0  0
    7.6792    0.5375    0.0000 O   0  0  0  0  0  0  0  0  0  0  0  0
    8.4750   -7.5750    0.0000 O   0  0  0  0  0  0  0  0  0  0  0  0
    9.3125   -4.9667    0.0000 O   0  0  0  0  0  0  0  0  0  0  0  0
    5.1417    0.5375    0.0000 O   0  0  0  0  0  0  0  0  0  0  0  0
    2.2125   -3.1667    0.0000 O   0  0  0  0  0  0  0  0  0  0  0  0
    1.8292   -4.0292    0.0000 O   0  0  0  0  0  0  0  0  0  0  0  0
  2  1  2  0
  3  5  2  0
  4  2  1  0
  5  2  1  0
 11  6  1  1
 14  7  1  6
  8  6  1  0
  9  7  1  0
 10  1  1  0
 11  4  1  0
 12 20  1  0
 13 24  1  0
 14  3  1  0
 15 10  1  0
 16 15  2  0
 17 14  1  0
 18  1  1  0
 19 25  1  0
 20 17  1  0
 21 28  1  0
 22 19  1  0
 23 31  2  0
 24 29  1  0
 17 25  1  6
 26 12  2  0
 27 13  2  0
 28 18  2  0
 29 11  1  0
 30 34  2  0
 31 35  1  0
 32  9  2  0
 33  8  2  0
 34 22  1  0
 35 22  2  0
 36 26  1  0
 37 27  1  0
 38 33  1  0
 39 32  1  0
 40 10  2  0
 41 19  2  0
 42 15  1  0
 43 18  1  0
 44 23  1  0
 45 26  1  0
 46 27  1  0
 47 28  1  0
 48 30  1  0
 49 31  1  0
 29 50  1  1
 51 38  1  0
 52 39  1  0
 21  4  2  0
 16  3  1  0
 13  8  1  0
 12  9  1  0
 37 38  2  0
 36 39  2  0
 23 30  1  0
M  END
>  <ID>  (1820) 


>  <MOLENAME>  (1820) 
THEAFLAVIN MONOGALLATES

>  <therap>  (1820) 
nan

>  <ref>  (1820) 
Tet Lets 1970: 5237

>  <cas#>  (1820) 
nan

>  <source>  (1820) 
mixed isomers black tea (3' shown)

>  <status>  (1820) 
undetermined activity

>  <tradename>  (1820) 
nan

>  <SMILES>  (1820) 
O=C(O[C@@H]1Cc2c(O)cc(O)cc2O[C@@H]1c1cc2c(c(O)c(O)cc2[C@H]2Oc3cc(O)cc(O)c3C[C@H]2O)c(=O)c(O)c1)c1cc(O)c(O)c(O)c1

>  <standardized_failed>  (1820) 
False

$$$$

     RDKit          2D

 13 13  0  0  0  0  0  0  0  0999 V2000
    4.6542   -3.3792    0.0000 N   0  0  0  0  0  0  0  0  0  0  0  0
    6.0875   -3.3875    0.0000 C   0  0  0  0  0  0  0  0  0  0  0  0
    5.3667   -3.7917    0.0000 C   0  0  0  0  0  0  0  0  0  0  0  0
    7.5125   -3.3917    0.0000 N   0  0  0  0  0  0  0  0  0  0  0  0
    6.8000   -3.8042    0.0000 C   0  0  0  0  0  0  0  0  0  0  0  0
    2.6750   -2.4042    0.0000 Cl  0  0  0  0  0  0  0  0  0  0  0  0
    3.9500   -3.7917    0.0000 C   0  0  0  0  0  0  0  0  0  0  0  0
    6.0875   -2.5625    0.0000 C   0  0  0  0  0  0  0  0  0  0  0  0
    7.5167   -2.5667    0.0000 C   0  0  0  0  0  0  0  0  0  0  0  0
    5.3667   -4.6167    0.0000 C   0  0  0  0  0  0  0  0  0  0  0  0
    6.8042   -2.1542    0.0000 C   0  0  0  0  0  0  0  0  0  0  0  0
    3.9500   -4.6167    0.0000 C   0  0  0  0  0  0  0  0  0  0  0  0
    4.6542   -5.0292    0.0000 C   0  0  0  0  0  0  0  0  0  0  0  0
  2  3  1  0
  3  1  1  0
  4  5  2  0
  5  2  1  0
  7  1  1  0
  8  2  2  0
  9 11  2  0
 10  3  1  0
 11  8  1  0
 12  7  1  0
 13 12  1  0
 10 13  1  0
  9  4  1  0
M  END
>  <ID>  (1821) 


>  <MOLENAME>  (1821) 
ANABASINE HYDROCHLORIDE

>  <therap>  (1821) 
insecticide 

>  <ref>  (1821) 
J Am Chem Soc 57: 959 (9154)

>  <cas#>  (1821) 
13078-04-1 (anabasine)

>  <source>  (1821) 
Anabasis aphylla & Nicotiana spp

>  <status>  (1821) 
agricultural use

>  <tradename>  (1821) 
nan

>  <SMILES>  (1821) 
c1cncc(C2CCCCN2)c1

>  <standardized_failed>  (1821) 
False

$$$$

     RDKit          2D

 10 11  0  0  0  0  0  0  0  0999 V2000
    2.9792   -1.6500    0.0000 C   0  0  0  0  0  0  0  0  0  0  0  0
    2.9792   -2.4667    0.0000 C   0  0  0  0  0  0  0  0  0  0  0  0
    2.2667   -2.8792    0.0000 N   0  0  0  0  0  0  0  0  0  0  0  0
    3.7667   -2.7167    0.0000 N   0  0  0  0  0  0  0  0  0  0  0  0
    2.2667   -1.2292    0.0000 C   0  0  0  0  0  0  0  0  0  0  0  0
    1.5542   -1.6500    0.0000 N   0  0  0  0  0  0  0  0  0  0  0  0
    3.7542   -1.3917    0.0000 N   0  0  0  0  0  0  0  0  0  0  0  0
    1.5542   -2.4750    0.0000 C   0  0  0  0  0  0  0  0  0  0  0  0
    4.2417   -2.0500    0.0000 C   0  0  0  0  0  0  0  0  0  0  0  0
    2.2667   -0.4042    0.0000 O   0  0  0  0  0  0  0  0  0  0  0  0
  2  1  2  0
  3  2  1  0
  4  2  1  0
  5  1  1  0
  6  5  1  0
  7  1  1  0
  8  6  1  0
  9  7  1  0
 10  5  2  0
  4  9  2  0
  8  3  2  0
M  END
>  <ID>  (1822) 


>  <MOLENAME>  (1822) 
HYPOXANTHINE

>  <therap>  (1822) 
nan

>  <ref>  (1822) 
nan

>  <cas#>  (1822) 
68-94-0

>  <source>  (1822) 
widely distributed in the plant and animal kingdom

>  <status>  (1822) 
undetermined activity

>  <tradename>  (1822) 
nan

>  <SMILES>  (1822) 
O=c1[nH]cnc2c1[nH]cn2

>  <standardized_failed>  (1822) 
False

$$$$

     RDKit          2D

  9  9  0  0  0  0  0  0  0  0999 V2000
    6.4542   -3.7417    0.0000 C   0  0  0  0  0  0  0  0  0  0  0  0
    6.4542   -4.5667    0.0000 C   0  0  0  0  0  0  0  0  0  0  0  0
    5.7375   -3.3250    0.0000 C   0  0  0  0  0  0  0  0  0  0  0  0
    5.0250   -3.7417    0.0000 C   0  0  0  0  0  0  0  0  0  0  0  0
    5.7375   -4.9792    0.0000 O   0  0  0  0  0  0  0  0  0  0  0  0
    5.0250   -4.5667    0.0000 C   0  0  0  0  0  0  0  0  0  0  0  0
    7.1750   -4.9875    0.0000 O   0  0  0  0  0  0  0  0  0  0  0  0
    5.7292   -2.4917    0.0000 O   0  0  0  0  0  0  0  0  0  0  0  0
    4.3042   -4.9875    0.0000 C   0  0  0  0  0  0  0  0  0  0  0  0
  2  1  1  0
  3  1  2  0
  4  3  1  0
  5  2  1  0
  6  4  2  0
  7  2  2  0
  8  3  1  0
  9  6  1  0
  5  6  1  0
M  END
>  <ID>  (1823) 


>  <MOLENAME>  (1823) 
4-HYDROXY-6-METHYLPYRAN-2-ONE

>  <therap>  (1823) 
nan

>  <ref>  (1823) 
J Am Chem Soc 89: 676, 681 (1967)

>  <cas#>  (1823) 
675-10-5

>  <source>  (1823) 
Pennicillium stipitatum

>  <status>  (1823) 
undetermined activity

>  <tradename>  (1823) 
nan

>  <SMILES>  (1823) 
Cc1cc(O)cc(=O)o1

>  <standardized_failed>  (1823) 
False

$$$$

     RDKit          2D

 17 18  0  0  0  0  0  0  0  0999 V2000
    5.8875   -3.3542    0.0000 N   0  0  0  0  0  0  0  0  0  0  0  0
    5.8750   -4.2125    0.0000 C   0  0  0  0  0  0  0  0  0  0  0  0
    5.1750   -2.9417    0.0000 C   0  0  0  0  0  0  0  0  0  0  0  0
    5.1750   -2.1125    0.0000 N   0  0  0  0  0  0  0  0  0  0  0  0
    6.5375   -4.7042    0.0000 C   0  0  0  0  0  0  0  0  0  0  0  0
    5.2042   -4.6917    0.0000 O   0  0  0  0  0  0  0  0  0  0  0  0
    6.6042   -2.9417    0.0000 C   0  0  0  0  0  0  0  0  0  0  0  0
    6.2750   -5.4792    0.0000 C   0  0  0  0  0  0  0  0  0  0  0  0
    5.4542   -5.4792    0.0000 C   0  0  0  0  0  0  0  0  0  0  0  0
    6.6042   -2.1125    0.0000 C   0  0  0  0  0  0  0  0  0  0  0  0
    5.8875   -1.7000    0.0000 C   0  0  0  0  0  0  0  0  0  0  0  0
    4.4542   -3.3625    0.0000 O   0  0  0  0  0  0  0  0  0  0  0  0
    7.3250   -4.4542    0.0000 O   0  0  0  0  0  0  0  0  0  0  0  0
    5.8875   -0.8750    0.0000 N   0  0  0  0  0  0  0  0  0  0  0  0
    6.7542   -6.1625    0.0000 O   0  0  0  0  0  0  0  0  0  0  0  0
    4.9750   -6.1542    0.0000 C   0  0  0  0  0  0  0  0  0  0  0  0
    4.1500   -6.0875    0.0000 O   0  0  0  0  0  0  0  0  0  0  0  0
  2  1  1  0
  3  1  1  0
  4  3  1  0
  5  2  1  0
  6  2  1  0
  7  1  1  0
  8  5  1  0
  9  6  1  0
 10  7  2  0
 11 10  1  0
 12  3  2  0
  5 13  1  6
 14 11  1  0
  8 15  1  6
  9 16  1  1
 17 16  1  0
 11  4  2  0
  8  9  1  0
M  END
>  <ID>  (1824) 


>  <MOLENAME>  (1824) 
CYTIDINE

>  <therap>  (1824) 
nan

>  <ref>  (1824) 
nan

>  <cas#>  (1824) 
65-46-3

>  <source>  (1824) 
nucleoside

>  <status>  (1824) 
undetermined activity

>  <tradename>  (1824) 
nan

>  <SMILES>  (1824) 
Nc1nc(=O)n(C2O[C@H](CO)[C@@H](O)[C@H]2O)cc1

>  <standardized_failed>  (1824) 
False

$$$$

     RDKit          2D

 17 19  0  0  0  0  0  0  0  0999 V2000
   10.5167   -1.0417    0.0000 C   0  0  0  0  0  0  0  0  0  0  0  0
   11.5000   -0.4417    0.0000 O   0  0  0  0  0  0  0  0  0  0  0  0
   11.5000   -1.6125    0.0000 C   0  0  0  0  0  0  0  0  0  0  0  0
   12.4750   -3.3250    0.0000 C   0  0  0  0  0  0  0  0  0  0  0  0
   10.5042   -4.9292    0.0000 C   0  0  0  0  0  0  0  0  0  0  0  0
   10.5167   -3.3250    0.0000 C   0  0  0  0  0  0  0  0  0  0  0  0
   12.4750   -4.9292    0.0000 C   0  0  0  0  0  0  0  0  0  0  0  0
   13.4542   -2.7500    0.0000 C   0  0  0  0  0  0  0  0  0  0  0  0
    9.5375   -2.7500    0.0000 C   0  0  0  0  0  0  0  0  0  0  0  0
    9.5375   -1.6125    0.0000 C   0  0  0  0  0  0  0  0  0  0  0  0
   12.4750   -1.0417    0.0000 C   0  0  0  0  0  0  0  0  0  0  0  0
   13.4542   -1.6125    0.0000 C   0  0  0  0  0  0  0  0  0  0  0  0
   14.4000   -2.1250    0.0000 O   0  0  0  0  0  0  0  0  0  0  0  0
   10.5042    0.0708    0.0000 C   0  0  0  0  0  0  0  0  0  0  0  0
   10.5042   -6.2125    0.0000 C   0  0  0  0  0  0  0  0  0  0  0  0
    9.1042   -4.9292    0.0000 C   0  0  0  0  0  0  0  0  0  0  0  0
   13.4667   -3.9292    0.0000 C   0  0  0  0  0  0  0  0  0  0  0  0
  2  1  1  0
  3  1  1  0
  4  6  1  0
  5  6  1  0
  6  9  1  0
  7  5  1  0
  8 12  1  0
  9 10  1  0
 10  1  1  0
 11  3  1  0
 12 11  1  0
 13  8  1  0
 14  1  1  0
 15  5  1  0
 16  5  1  0
 17  8  1  0
  2  3  1  0
  8  4  1  0
  7  4  1  0
M  END
>  <ID>  (1825) 


>  <MOLENAME>  (1825) 
2-HYDROXY-5 (6)EPOXY-TETRAHYDROCARYOPHYLLENE

>  <therap>  (1825) 
nan

>  <ref>  (1825) 
nan

>  <cas#>  (1825) 
nan

>  <source>  (1825) 
derivative

>  <status>  (1825) 
undetermined activity

>  <tradename>  (1825) 
nan

>  <SMILES>  (1825) 
CC1(C)CC2C1CCC1(C)OC1CCC2(C)O

>  <standardized_failed>  (1825) 
False

$$$$

     RDKit          2D

 16 18  0  0  0  0  0  0  0  0999 V2000
   -2.2500   -2.9125    0.0000 C   0  0  0  0  0  0  0  0  0  0  0  0
   -1.3833   -3.4167    0.0000 C   0  0  0  0  0  0  0  0  0  0  0  0
   -3.1833   -1.9000    0.0000 C   0  0  0  0  0  0  0  0  0  0  0  0
   -2.2208   -1.8792    0.0000 C   0  0  0  0  0  0  0  0  0  0  0  0
   -3.2208   -2.9292    0.0000 C   0  0  0  0  0  0  0  0  0  0  0  0
   -1.3708   -2.5917    0.0000 C   0  0  0  0  0  0  0  0  0  0  0  0
   -1.6333   -1.2875    0.0000 C   0  0  0  0  0  0  0  0  0  0  0  0
   -0.6583   -2.1750    0.0000 C   0  0  0  0  0  0  0  0  0  0  0  0
   -1.8083   -4.2917    0.0000 O   0  0  0  0  0  0  0  0  0  0  0  0
   -0.9375   -1.4792    0.0000 C   0  0  0  0  0  0  0  0  0  0  0  0
   -0.6583   -3.8250    0.0000 C   0  0  0  0  0  0  0  0  0  0  0  0
   -4.0500   -1.8875    0.0000 C   0  0  0  0  0  0  0  0  0  0  0  0
   -3.1708   -0.9792    0.0000 C   0  0  0  0  0  0  0  0  0  0  0  0
    0.0542   -2.5917    0.0000 C   0  0  0  0  0  0  0  0  0  0  0  0
    0.0542   -3.4167    0.0000 C   0  0  0  0  0  0  0  0  0  0  0  0
   -0.0083   -1.5125    0.0000 C   0  0  0  0  0  0  0  0  0  0  0  0
  2  1  1  0
  3  5  1  0
  4  1  1  0
  5  1  1  0
  6  2  1  0
  7  4  1  0
  8  6  1  0
  9  2  1  0
 10  7  1  0
 11  2  1  0
 12  3  1  0
 13  3  1  0
 14 15  1  0
 15 11  1  0
 16  8  1  0
  3  4  1  0
  8 10  1  0
  8 14  1  0
M  END
>  <ID>  (1826) 


>  <MOLENAME>  (1826) 
beta-CARYOPHYLLENE ALCOHOL

>  <therap>  (1826) 
nan

>  <ref>  (1826) 
Aust J Chem 41: 1755 (1988)

>  <cas#>  (1826) 
nan

>  <source>  (1826) 
palmarosa oil, Cymbopogon martini

>  <status>  (1826) 
undetermined activity

>  <tradename>  (1826) 
nan

>  <SMILES>  (1826) 
CC12CCCC(O)(C1)C1CC(C)(C)C1CC2

>  <standardized_failed>  (1826) 
False

$$$$

     RDKit          2D

 18 20  0  0  0  0  0  0  0  0999 V2000
   -1.4125   -2.0417    0.0000 C   0  0  0  0  0  0  0  0  0  0  0  0
   -0.7083   -2.4500    0.0000 C   0  0  0  0  0  0  0  0  0  0  0  0
    0.0042   -2.0417    0.0000 C   0  0  0  0  0  0  0  0  0  0  0  0
   -1.4125   -1.2167    0.0000 C   0  0  0  0  0  0  0  0  0  0  0  0
   -0.7083   -0.8000    0.0000 C   0  0  0  0  0  0  0  0  0  0  0  0
    0.7167   -2.4417    0.0000 N   0  0  0  0  0  0  0  0  0  0  0  0
   -0.7083   -3.2667    0.0000 C   0  0  0  0  0  0  0  0  0  0  0  0
   -0.7083    0.0250    0.0000 C   0  0  0  0  0  0  0  0  0  0  0  0
    0.0042   -1.2167    0.0000 C   0  0  0  0  0  0  0  0  0  0  0  0
    0.7167   -3.2667    0.0000 C   0  0  0  0  0  0  0  0  0  0  0  0
   -0.5458   -1.6792    0.0000 C   0  0  0  0  0  0  0  0  0  0  0  0
    0.2417   -0.4375    0.0000 C   0  0  0  0  0  0  0  0  0  0  0  0
    0.0042   -3.6792    0.0000 C   0  0  0  0  0  0  0  0  0  0  0  0
   -2.1333   -2.4500    0.0000 N   0  0  0  0  0  0  0  0  0  0  0  0
   -2.1333   -0.8042    0.0000 C   0  0  0  0  0  0  0  0  0  0  0  0
    1.4292   -3.6792    0.0000 O   0  0  0  0  0  0  0  0  0  0  0  0
    1.0542   -0.4375    0.0000 C   0  0  0  0  0  0  0  0  0  0  0  0
   -2.1333    0.0208    0.0000 C   0  0  0  0  0  0  0  0  0  0  0  0
  2  1  1  0
  3  2  2  0
  4  1  1  0
  5  4  1  0
  6  3  1  0
  7  2  1  0
  8 12  2  0
  5  9  1  1
 10 13  1  0
  1 11  1  0
 12 11  1  0
 13  7  2  0
  1 14  1  1
 15  4  2  0
 16 10  2  0
 17 12  1  0
 18 15  1  0
  5  8  1  0
  3  9  1  0
  6 10  1  0
M  END
>  <ID>  (1827) 


>  <MOLENAME>  (1827) 
HUPERZINE A

>  <therap>  (1827) 
anticholinesterase, cognition enhancer

>  <ref>  (1827) 
Tet Lett 1960 (10): 26; Can J Chem 64: 837 (1986); Adv Med 1: 175 (1992) 

>  <cas#>  (1827) 
102518-79-6

>  <source>  (1827) 
Lycopodium spp

>  <status>  (1827) 
experimental

>  <tradename>  (1827) 
nan

>  <SMILES>  (1827) 
C/C=C1\[C@H]2C=C(C)C[C@]1(N)c1c(C2)[nH]c(=O)cc1

>  <standardized_failed>  (1827) 
False

$$$$

     RDKit          2D

 25 29  0  0  0  0  0  0  0  0999 V2000
    2.7542   -2.1167    0.0000 C   0  0  0  0  0  0  0  0  0  0  0  0
    4.0167   -2.5167    0.0000 C   0  0  0  0  0  0  0  0  0  0  0  0
    2.0417   -3.3542    0.0000 C   0  0  0  0  0  0  0  0  0  0  0  0
    2.7542   -2.9417    0.0000 C   0  0  0  0  0  0  0  0  0  0  0  0
    2.2042   -2.6917    0.0000 C   0  0  0  0  0  0  0  0  0  0  0  0
    2.5375   -1.3167    0.0000 O   0  0  0  0  0  0  0  0  0  0  0  0
    3.5417   -3.1917    0.0000 C   0  0  0  0  0  0  0  0  0  0  0  0
    3.5292   -1.8625    0.0000 C   0  0  0  0  0  0  0  0  0  0  0  0
    5.1542   -1.6875    0.0000 C   0  0  0  0  0  0  0  0  0  0  0  0
    1.8292   -1.6542    0.0000 C   0  0  0  0  0  0  0  0  0  0  0  0
    4.8250   -2.4292    0.0000 C   0  0  0  0  0  0  0  0  0  0  0  0
    4.6000   -3.1042    0.0000 C   0  0  0  0  0  0  0  0  0  0  0  0
    5.5667   -2.4000    0.0000 C   0  0  0  0  0  0  0  0  0  0  0  0
    3.8042   -3.9667    0.0000 C   0  0  0  0  0  0  0  0  0  0  0  0
    1.0792   -2.2417    0.0000 C   0  0  0  0  0  0  0  0  0  0  0  0
    1.0792   -3.0667    0.0000 C   0  0  0  0  0  0  0  0  0  0  0  0
    3.8625   -1.1125    0.0000 C   0  0  0  0  0  0  0  0  0  0  0  0
    1.6792   -2.4667    0.0000 O   0  0  0  0  0  0  0  0  0  0  0  0
    4.6750   -1.0292    0.0000 C   0  0  0  0  0  0  0  0  0  0  0  0
    3.2167   -4.5542    0.0000 O   0  0  0  0  0  0  0  0  0  0  0  0
    6.3667   -2.5667    0.0000 C   0  0  0  0  0  0  0  0  0  0  0  0
    5.9542   -1.4667    0.0000 O   0  0  0  0  0  0  0  0  0  0  0  0
    2.0375   -4.1792    0.0000 C   0  0  0  0  0  0  0  0  0  0  0  0
    4.5167   -4.3792    0.0000 O   0  0  0  0  0  0  0  0  0  0  0  0
    0.6167   -3.3542    0.0000 O   0  0  0  0  0  0  0  0  0  0  0  0
  2  8  1  0
  3  4  1  0
  4  1  1  0
  5  6  1  0
  1  6  1  6
  4  7  1  6
  8  1  1  0
  9 19  1  0
 10  1  1  0
 11  2  1  0
  2 12  1  1
 13 12  1  0
  7 14  1  1
 15 10  2  0
 16 15  1  0
  8 17  1  6
 18  5  2  0
 19 17  1  0
 20 14  2  0
 21 13  2  0
  9 22  1  6
  3 23  1  1
 24 14  1  0
 16 25  1  1
  3  5  1  0
  7  2  1  0
  3 16  1  0
 11  9  1  0
  9 13  1  0
M  END
>  <ID>  (1828) 


>  <MOLENAME>  (1828) 
GIBBERELLIC ACID

>  <therap>  (1828) 
nan

>  <ref>  (1828) 
J Chem Soc 1954: 1066

>  <cas#>  (1828) 
77-06-5

>  <source>  (1828) 
Gibberella fujikuroi

>  <status>  (1828) 
undetermined activity

>  <tradename>  (1828) 
nan

>  <SMILES>  (1828) 
C=C1C[C@]23C[C@@]1(O)CC[C@H]2[C@@]12C=C[C@H](O)[C@](C)(C(=O)O1)[C@H]2[C@@H]3C(=O)O

>  <standardized_failed>  (1828) 
False

$$$$

     RDKit          2D

 34 38  0  0  0  0  0  0  0  0999 V2000
    4.3667   -4.5167    0.0000 C   0  0  0  0  0  0  0  0  0  0  0  0
    7.1667   -3.9542    0.0000 C   0  0  0  0  0  0  0  0  0  0  0  0
    4.3667   -5.5792    0.0000 C   0  0  0  0  0  0  0  0  0  0  0  0
    3.4292   -6.1417    0.0000 C   0  0  0  0  0  0  0  0  0  0  0  0
    7.1667   -2.8792    0.0000 C   0  0  0  0  0  0  0  0  0  0  0  0
    6.2167   -4.5167    0.0000 C   0  0  0  0  0  0  0  0  0  0  0  0
    5.3042   -3.9542    0.0000 C   0  0  0  0  0  0  0  0  0  0  0  0
    3.4292   -3.9542    0.0000 C   0  0  0  0  0  0  0  0  0  0  0  0
    2.5042   -5.5792    0.0000 C   0  0  0  0  0  0  0  0  0  0  0  0
    2.5042   -4.5167    0.0000 C   0  0  0  0  0  0  0  0  0  0  0  0
    8.0917   -2.3292    0.0000 C   0  0  0  0  0  0  0  0  0  0  0  0
    6.2167   -6.5917    0.0000 C   0  0  0  0  0  0  0  0  0  0  0  0
    8.0917   -4.5167    0.0000 C   0  0  0  0  0  0  0  0  0  0  0  0
    9.0417   -2.8792    0.0000 O   0  0  0  0  0  0  0  0  0  0  0  0
    8.0917   -1.5042    0.0000 C   0  0  0  0  0  0  0  0  0  0  0  0
    9.0417   -3.9542    0.0000 C   0  0  0  0  0  0  0  0  0  0  0  0
    6.2167   -2.3292    0.0000 C   0  0  0  0  0  0  0  0  0  0  0  0
    5.3042   -2.8792    0.0000 C   0  0  0  0  0  0  0  0  0  0  0  0
    3.4292   -2.8792    0.0000 C   0  0  0  0  0  0  0  0  0  0  0  0
    2.5167   -2.3292    0.0000 C   0  0  0  0  0  0  0  0  0  0  0  0
    5.1792   -6.0792    0.0000 O   0  0  0  0  0  0  0  0  0  0  0  0
    8.8000   -0.7167    0.0000 C   0  0  0  0  0  0  0  0  0  0  0  0
    1.6292   -6.0417    0.0000 O   0  0  0  0  0  0  0  0  0  0  0  0
    7.0792   -1.0042    0.0000 C   0  0  0  0  0  0  0  0  0  0  0  0
    8.3000    0.2458    0.0000 O   0  0  0  0  0  0  0  0  0  0  0  0
    9.9917   -4.5167    0.0000 O   0  0  0  0  0  0  0  0  0  0  0  0
    7.2500    0.0458    0.0000 C   0  0  0  0  0  0  0  0  0  0  0  0
    2.5167   -1.2667    0.0000 O   0  0  0  0  0  0  0  0  0  0  0  0
    3.5542   -5.0542    0.0000 C   0  0  0  0  0  0  0  0  0  0  0  0
    7.1667   -1.7792    0.0000 C   0  0  0  0  0  0  0  0  0  0  0  0
    1.7042   -5.0292    0.0000 C   0  0  0  0  0  0  0  0  0  0  0  0
    2.5042   -3.4667    0.0000 C   0  0  0  0  0  0  0  0  0  0  0  0
    1.5917   -2.8792    0.0000 O   0  0  0  0  0  0  0  0  0  0  0  0
    0.7417   -2.3792    0.0000 C   0  0  0  0  0  0  0  0  0  0  0  0
  2  6  1  0
  1  3  1  0
  4  3  1  0
  5 17  1  0
  6  7  1  0
  7  1  1  0
  8  1  1  0
  9 10  1  0
 10  8  1  0
 11  5  1  0
 12  6  1  0
 13  2  2  0
 11 14  1  6
 11 15  1  0
 16 13  1  0
 17 18  1  0
 18  7  1  0
  8 19  1  6
 20 19  1  0
 21  3  2  0
 22 15  2  0
 23  9  2  0
 24 15  1  0
 25 22  1  0
 26 16  2  0
 27 24  2  0
 28 20  2  0
  1 29  1  1
  5 30  1  6
 31 10  1  0
 32 10  1  0
 33 20  1  0
 34 33  1  0
  4  9  1  0
  4 12  1  1
  2  5  1  0
 16 14  1  0
 27 25  1  0
M  END
>  <ID>  (1829) 


>  <MOLENAME>  (1829) 
CARAPIN

>  <therap>  (1829) 
nan

>  <ref>  (1829) 
Chem Commun 1965: 302

>  <cas#>  (1829) 
3463-88-5

>  <source>  (1829) 
Carapa and Cedrela species; mp 180-185

>  <status>  (1829) 
undetermined activity

>  <tradename>  (1829) 
nan

>  <SMILES>  (1829) 
COC(=O)C[C@H]1C(C)(C)C(=O)[C@@H]2CC3C4=CC(=O)O[C@@H](c5cocc5)[C@]4(C)CCC3[C@]1(C)C2=O

>  <standardized_failed>  (1829) 
False

$$$$

     RDKit          2D

 35 40  0  0  0  0  0  0  0  0999 V2000
    6.7417   -3.3417    0.0000 C   0  0  0  0  0  0  0  0  0  0  0  0
    7.6167   -3.8167    0.0000 C   0  0  0  0  0  0  0  0  0  0  0  0
    5.8667   -3.8167    0.0000 C   0  0  0  0  0  0  0  0  0  0  0  0
    6.7417   -2.3167    0.0000 C   0  0  0  0  0  0  0  0  0  0  0  0
    6.7667   -4.3375    0.0000 O   0  0  0  0  0  0  0  0  0  0  0  0
    4.0792   -3.8167    0.0000 C   0  0  0  0  0  0  0  0  0  0  0  0
    4.9667   -3.3417    0.0000 C   0  0  0  0  0  0  0  0  0  0  0  0
    8.4792   -3.3417    0.0000 C   0  0  0  0  0  0  0  0  0  0  0  0
    4.0792   -4.8417    0.0000 C   0  0  0  0  0  0  0  0  0  0  0  0
    7.6167   -1.7917    0.0000 C   0  0  0  0  0  0  0  0  0  0  0  0
    8.4792   -2.3167    0.0000 O   0  0  0  0  0  0  0  0  0  0  0  0
    5.8667   -4.8167    0.0000 C   0  0  0  0  0  0  0  0  0  0  0  0
    3.2167   -5.3667    0.0000 C   0  0  0  0  0  0  0  0  0  0  0  0
    7.6167   -0.9667    0.0000 C   0  0  0  0  0  0  0  0  0  0  0  0
    5.0042   -5.3167    0.0000 C   0  0  0  0  0  0  0  0  0  0  0  0
    5.8667   -1.7917    0.0000 C   0  0  0  0  0  0  0  0  0  0  0  0
    4.9667   -2.3167    0.0000 C   0  0  0  0  0  0  0  0  0  0  0  0
    2.3292   -4.8417    0.0000 C   0  0  0  0  0  0  0  0  0  0  0  0
    3.2167   -3.3417    0.0000 C   0  0  0  0  0  0  0  0  0  0  0  0
    6.7667   -5.2667    0.0000 O   0  0  0  0  0  0  0  0  0  0  0  0
    6.7542   -6.2667    0.0000 C   0  0  0  0  0  0  0  0  0  0  0  0
    9.3667   -3.8542    0.0000 O   0  0  0  0  0  0  0  0  0  0  0  0
    8.3042   -0.2292    0.0000 C   0  0  0  0  0  0  0  0  0  0  0  0
    6.7167   -0.5042    0.0000 C   0  0  0  0  0  0  0  0  0  0  0  0
    7.8417    0.6708    0.0000 O   0  0  0  0  0  0  0  0  0  0  0  0
    2.3292   -3.8167    0.0000 C   0  0  0  0  0  0  0  0  0  0  0  0
    6.8417    0.4708    0.0000 C   0  0  0  0  0  0  0  0  0  0  0  0
    1.4292   -5.3542    0.0000 O   0  0  0  0  0  0  0  0  0  0  0  0
    7.6917   -6.7917    0.0000 O   0  0  0  0  0  0  0  0  0  0  0  0
    5.8667   -2.6042    0.0000 C   0  0  0  0  0  0  0  0  0  0  0  0
    6.7417   -1.2917    0.0000 C   0  0  0  0  0  0  0  0  0  0  0  0
    4.0792   -2.6792    0.0000 C   0  0  0  0  0  0  0  0  0  0  0  0
    2.3292   -5.9042    0.0000 C   0  0  0  0  0  0  0  0  0  0  0  0
    4.0792   -5.9042    0.0000 C   0  0  0  0  0  0  0  0  0  0  0  0
    5.9667   -6.7167    0.0000 C   0  0  0  0  0  0  0  0  0  0  0  0
  2  1  1  0
  3  1  1  0
  4  1  1  0
  5  1  1  0
  6  7  1  0
  7  3  1  0
  8  2  1  0
  9 15  1  0
 10  4  1  0
 10 11  1  6
 12  3  1  0
 13  9  1  0
 10 14  1  0
 15 12  1  0
 16  4  1  0
 17 16  1  0
 18 13  1  0
 19  6  1  0
 12 20  1  6
 21 20  1  0
 22  8  2  0
 23 14  2  0
 24 14  1  0
 25 23  1  0
 26 19  1  0
 27 24  2  0
 28 18  2  0
 29 21  2  0
  3 30  1  1
  4 31  1  6
  6 32  1  1
 33 13  1  0
 34 13  1  0
 35 21  1  0
  2  5  1  0
  7 17  1  0
 11  8  1  0
  6  9  1  0
 27 25  1  0
 18 26  1  0
M  END
>  <ID>  (1830) 


>  <MOLENAME>  (1830) 
DIHYDROGEDUNIN

>  <therap>  (1830) 
nan

>  <ref>  (1830) 
nan

>  <cas#>  (1830) 
nan

>  <source>  (1830) 
Meliaceae spp.

>  <status>  (1830) 
undetermined activity

>  <tradename>  (1830) 
nan

>  <SMILES>  (1830) 
CC(=O)O[C@@H]1CC2C(C)(C)C(=O)CC[C@]2(C)C2CC[C@@]3(C)[C@H](c4cocc4)OC(=O)C4OC43[C@@]21C

>  <standardized_failed>  (1830) 
False

$$$$

     RDKit          2D

 32 37  0  0  0  0  0  0  0  0999 V2000
    6.7417   -3.8625    0.0000 C   0  0  0  0  0  0  0  0  0  0  0  0
    7.6167   -4.3417    0.0000 C   0  0  0  0  0  0  0  0  0  0  0  0
    5.8667   -4.3417    0.0000 C   0  0  0  0  0  0  0  0  0  0  0  0
    6.7417   -2.8417    0.0000 C   0  0  0  0  0  0  0  0  0  0  0  0
    6.7542   -4.8792    0.0000 O   0  0  0  0  0  0  0  0  0  0  0  0
    4.0792   -4.3417    0.0000 C   0  0  0  0  0  0  0  0  0  0  0  0
    4.9667   -3.8625    0.0000 C   0  0  0  0  0  0  0  0  0  0  0  0
    8.4792   -3.8625    0.0000 C   0  0  0  0  0  0  0  0  0  0  0  0
    4.0792   -5.3667    0.0000 C   0  0  0  0  0  0  0  0  0  0  0  0
    7.6167   -2.3167    0.0000 C   0  0  0  0  0  0  0  0  0  0  0  0
    5.8667   -5.3417    0.0000 C   0  0  0  0  0  0  0  0  0  0  0  0
    8.4792   -2.8417    0.0000 O   0  0  0  0  0  0  0  0  0  0  0  0
    3.2167   -5.8917    0.0000 C   0  0  0  0  0  0  0  0  0  0  0  0
    3.2167   -3.8625    0.0000 C   0  0  0  0  0  0  0  0  0  0  0  0
    5.0042   -5.8417    0.0000 C   0  0  0  0  0  0  0  0  0  0  0  0
    7.6125   -1.4917    0.0000 C   0  0  0  0  0  0  0  0  0  0  0  0
    5.8667   -2.3167    0.0000 C   0  0  0  0  0  0  0  0  0  0  0  0
    2.3292   -5.3667    0.0000 C   0  0  0  0  0  0  0  0  0  0  0  0
    2.3292   -4.3417    0.0000 C   0  0  0  0  0  0  0  0  0  0  0  0
    4.9667   -2.8417    0.0000 C   0  0  0  0  0  0  0  0  0  0  0  0
    9.3667   -4.3792    0.0000 O   0  0  0  0  0  0  0  0  0  0  0  0
    8.2917   -0.7542    0.0000 C   0  0  0  0  0  0  0  0  0  0  0  0
    6.7667   -5.7917    0.0000 O   0  0  0  0  0  0  0  0  0  0  0  0
    6.7042   -1.0292    0.0000 C   0  0  0  0  0  0  0  0  0  0  0  0
    7.8375    0.1458    0.0000 O   0  0  0  0  0  0  0  0  0  0  0  0
    6.8375   -0.0542    0.0000 C   0  0  0  0  0  0  0  0  0  0  0  0
    1.4292   -5.8792    0.0000 O   0  0  0  0  0  0  0  0  0  0  0  0
    5.8667   -3.1292    0.0000 C   0  0  0  0  0  0  0  0  0  0  0  0
    6.7417   -1.8125    0.0000 C   0  0  0  0  0  0  0  0  0  0  0  0
    4.0792   -3.2000    0.0000 C   0  0  0  0  0  0  0  0  0  0  0  0
    4.0792   -6.4292    0.0000 C   0  0  0  0  0  0  0  0  0  0  0  0
    2.3292   -6.4292    0.0000 C   0  0  0  0  0  0  0  0  0  0  0  0
  2  1  1  0
  3  1  1  0
  4  1  1  0
  1  5  1  1
  6  7  1  0
  7  3  1  0
  8  2  1  0
  9 15  1  0
 10  4  1  0
 11  3  1  0
 10 12  1  6
 13  9  1  0
 14  6  1  0
 15 11  1  0
 10 16  1  0
 17  4  1  0
 18 13  1  0
 19 14  2  0
 20 17  1  0
 21  8  2  0
 22 16  2  0
 23 11  2  0
 24 16  1  0
 25 22  1  0
 26 24  2  0
 27 18  2  0
  3 28  1  1
  4 29  1  6
  6 30  1  1
 31 13  1  0
 32 13  1  0
  2  5  1  1
  7 20  1  0
  8 12  1  0
  6  9  1  0
 26 25  1  0
 19 18  1  0
M  END
>  <ID>  (1831) 


>  <MOLENAME>  (1831) 
DEACETOXY-7-OXOGEDUNIN

>  <therap>  (1831) 
nan

>  <ref>  (1831) 
nan

>  <cas#>  (1831) 
nan

>  <source>  (1831) 
Meliaceae spp

>  <status>  (1831) 
undetermined activity

>  <tradename>  (1831) 
nan

>  <SMILES>  (1831) 
CC1(C)C(=O)C=C[C@@]2(C)C1CC(=O)[C@]1(C)C2CC[C@@]2(C)[C@H](c3cocc3)OC(=O)[C@H]3O[C@]321

>  <standardized_failed>  (1831) 
False

$$$$

     RDKit          2D

 39 44  0  0  0  0  0  0  0  0999 V2000
    7.6042   -3.8542    0.0000 C   0  0  0  0  0  0  0  0  0  0  0  0
    8.4750   -4.3292    0.0000 C   0  0  0  0  0  0  0  0  0  0  0  0
    6.7125   -4.3292    0.0000 C   0  0  0  0  0  0  0  0  0  0  0  0
    7.6042   -2.8417    0.0000 C   0  0  0  0  0  0  0  0  0  0  0  0
    7.5917   -4.8667    0.0000 O   0  0  0  0  0  0  0  0  0  0  0  0
    4.9417   -4.3292    0.0000 C   0  0  0  0  0  0  0  0  0  0  0  0
    5.8125   -3.8542    0.0000 C   0  0  0  0  0  0  0  0  0  0  0  0
    9.3250   -3.8542    0.0000 C   0  0  0  0  0  0  0  0  0  0  0  0
    4.9417   -5.3542    0.0000 C   0  0  0  0  0  0  0  0  0  0  0  0
    8.4750   -2.3042    0.0000 C   0  0  0  0  0  0  0  0  0  0  0  0
    6.7125   -5.3417    0.0000 C   0  0  0  0  0  0  0  0  0  0  0  0
    9.3250   -2.8417    0.0000 O   0  0  0  0  0  0  0  0  0  0  0  0
    4.0750   -5.8667    0.0000 C   0  0  0  0  0  0  0  0  0  0  0  0
    4.0750   -3.8542    0.0000 C   0  0  0  0  0  0  0  0  0  0  0  0
    3.1917   -5.3542    0.0000 C   0  0  0  0  0  0  0  0  0  0  0  0
    5.8625   -5.8292    0.0000 C   0  0  0  0  0  0  0  0  0  0  0  0
    8.4667   -1.4792    0.0000 C   0  0  0  0  0  0  0  0  0  0  0  0
    3.1917   -4.3292    0.0000 C   0  0  0  0  0  0  0  0  0  0  0  0
    6.7125   -2.3042    0.0000 C   0  0  0  0  0  0  0  0  0  0  0  0
    5.8125   -2.8417    0.0000 C   0  0  0  0  0  0  0  0  0  0  0  0
    4.0625   -2.8292    0.0000 O   0  0  0  0  0  0  0  0  0  0  0  0
    2.3167   -5.8667    0.0000 O   0  0  0  0  0  0  0  0  0  0  0  0
    1.4625   -5.3792    0.0000 C   0  0  0  0  0  0  0  0  0  0  0  0
    3.2250   -2.3542    0.0000 C   0  0  0  0  0  0  0  0  0  0  0  0
   10.2042   -4.3542    0.0000 O   0  0  0  0  0  0  0  0  0  0  0  0
    9.1542   -0.7542    0.0000 C   0  0  0  0  0  0  0  0  0  0  0  0
    7.5875   -5.8167    0.0000 O   0  0  0  0  0  0  0  0  0  0  0  0
    7.5667   -1.0042    0.0000 C   0  0  0  0  0  0  0  0  0  0  0  0
    8.7042    0.1458    0.0000 O   0  0  0  0  0  0  0  0  0  0  0  0
    7.7042   -0.0292    0.0000 C   0  0  0  0  0  0  0  0  0  0  0  0
    3.2125   -1.3792    0.0000 O   0  0  0  0  0  0  0  0  0  0  0  0
    0.5917   -5.8792    0.0000 O   0  0  0  0  0  0  0  0  0  0  0  0
    6.7125   -3.1292    0.0000 C   0  0  0  0  0  0  0  0  0  0  0  0
    7.6042   -1.8042    0.0000 C   0  0  0  0  0  0  0  0  0  0  0  0
    4.9417   -3.2042    0.0000 C   0  0  0  0  0  0  0  0  0  0  0  0
    3.1917   -6.4042    0.0000 C   0  0  0  0  0  0  0  0  0  0  0  0
    4.9417   -6.4042    0.0000 C   0  0  0  0  0  0  0  0  0  0  0  0
    1.4750   -4.2792    0.0000 C   0  0  0  0  0  0  0  0  0  0  0  0
    2.2875   -2.8542    0.0000 C   0  0  0  0  0  0  0  0  0  0  0  0
  2  1  1  0
  3  1  1  0
  4  1  1  0
  1  5  1  1
  6  7  1  0
  7  3  1  0
  8  2  1  0
  9 16  1  0
 10  4  1  0
 11  3  1  0
 10 12  1  6
 13  9  1  0
 14  6  1  0
 15 13  1  0
 16 11  1  0
 10 17  1  0
 18 14  1  0
 19  4  1  0
 20 19  1  0
 14 21  1  6
 15 22  1  6
 23 22  1  0
 24 21  1  0
 25  8  2  0
 26 17  2  0
 27 11  2  0
 28 17  1  0
 29 26  1  0
 30 28  2  0
 31 24  2  0
 32 23  2  0
  3 33  1  1
  4 34  1  6
  6 35  1  1
 36 13  1  0
 37 13  1  0
 38 23  1  0
 39 24  1  0
  2  5  1  1
 20  7  1  0
  8 12  1  0
  6  9  1  0
 30 29  1  0
 15 18  1  0
M  END
>  <ID>  (1832) 


>  <MOLENAME>  (1832) 
7-DEACETOXY-7-OXOKHIVORIN

>  <therap>  (1832) 
nan

>  <ref>  (1832) 
J Chem Soc 1963: 980

>  <cas#>  (1832) 
15004-51-0

>  <source>  (1832) 
Khaya senegalensis and other Meliaceae; mp 225

>  <status>  (1832) 
undetermined activity

>  <tradename>  (1832) 
nan

>  <SMILES>  (1832) 
CC(=O)O[C@H]1C[C@@H](OC(C)=O)C(C)(C)C2CC(=O)[C@]3(C)C(CC[C@@]4(C)[C@H](c5cocc5)OC(=O)[C@H]5O[C@]543)[C@]21C

>  <standardized_failed>  (1832) 
False

$$$$

     RDKit          2D

 58 66  0  0  0  0  0  0  0  0999 V2000
    3.7917   -0.6917    0.0000 C   0  0  0  0  0  0  0  0  0  0  0  0
    3.1042   -0.2875    0.0000 C   0  0  0  0  0  0  0  0  0  0  0  0
    1.7417   -1.9042    0.0000 C   0  0  0  0  0  0  0  0  0  0  0  0
    2.4292   -0.6917    0.0000 C   0  0  0  0  0  0  0  0  0  0  0  0
    4.4917   -0.2875    0.0000 C   0  0  0  0  0  0  0  0  0  0  0  0
    1.7417   -1.1417    0.0000 C   0  0  0  0  0  0  0  0  0  0  0  0
   -0.3083   -2.9875    0.0000 C   0  0  0  0  0  0  0  0  0  0  0  0
    4.4917    0.5083    0.0000 C   0  0  0  0  0  0  0  0  0  0  0  0
    2.5917   -1.9167    0.0000 C   0  0  0  0  0  0  0  0  0  0  0  0
    1.0417   -0.2917    0.0000 C   0  0  0  0  0  0  0  0  0  0  0  0
    0.2167   -3.7375    0.0000 O   0  0  0  0  0  0  0  0  0  0  0  0
    1.0417   -1.4875    0.0000 C   0  0  0  0  0  0  0  0  0  0  0  0
    3.9042   -2.3375    0.0000 C   0  0  0  0  0  0  0  0  0  0  0  0
    1.7417   -0.2875    0.0000 C   0  0  0  0  0  0  0  0  0  0  0  0
    0.4042   -2.6250    0.0000 C   0  0  0  0  0  0  0  0  0  0  0  0
   -0.6708   -3.7375    0.0000 C   0  0  0  0  0  0  0  0  0  0  0  0
    3.9042   -1.5417    0.0000 O   0  0  0  0  0  0  0  0  0  0  0  0
    5.1792    0.9125    0.0000 C   0  0  0  0  0  0  0  0  0  0  0  0
    3.3792   -1.5542    0.0000 O   0  0  0  0  0  0  0  0  0  0  0  0
    3.1042    0.5083    0.0000 C   0  0  0  0  0  0  0  0  0  0  0  0
    4.4167   -1.5750    0.0000 O   0  0  0  0  0  0  0  0  0  0  0  0
    1.3167   -1.1417    0.0000 C   0  0  0  0  0  0  0  0  0  0  0  0
    0.4042   -1.8250    0.0000 O   0  0  0  0  0  0  0  0  0  0  0  0
    3.7917    0.9125    0.0000 C   0  0  0  0  0  0  0  0  0  0  0  0
    5.1792   -0.6917    0.0000 C   0  0  0  0  0  0  0  0  0  0  0  0
    5.8792    0.5083    0.0000 O   0  0  0  0  0  0  0  0  0  0  0  0
    5.8792   -0.2875    0.0000 C   0  0  0  0  0  0  0  0  0  0  0  0
    5.1750    1.7375    0.0000 C   0  0  0  0  0  0  0  0  0  0  0  0
    2.3917    1.6458    0.0000 C   0  0  0  0  0  0  0  0  0  0  0  0
    2.3917    0.8750    0.0000 O   0  0  0  0  0  0  0  0  0  0  0  0
    2.3417   -2.6417    0.0000 O   0  0  0  0  0  0  0  0  0  0  0  0
    1.7417    0.5083    0.0000 C   0  0  0  0  0  0  0  0  0  0  0  0
    2.8792   -3.1917    0.0000 C   0  0  0  0  0  0  0  0  0  0  0  0
    1.0542    0.9125    0.0000 C   0  0  0  0  0  0  0  0  0  0  0  0
    1.4917   -2.5375    0.0000 O   0  0  0  0  0  0  0  0  0  0  0  0
    5.6917    2.3333    0.0000 C   0  0  0  0  0  0  0  0  0  0  0  0
    1.0667   -3.0167    0.0000 O   0  0  0  0  0  0  0  0  0  0  0  0
    4.4250    2.1083    0.0000 C   0  0  0  0  0  0  0  0  0  0  0  0
    5.3250    3.0458    0.0000 O   0  0  0  0  0  0  0  0  0  0  0  0
    2.4292   -1.1417    0.0000 O   0  0  0  0  0  0  0  0  0  0  0  0
    1.7042    2.0208    0.0000 O   0  0  0  0  0  0  0  0  0  0  0  0
    6.5917   -0.6917    0.0000 O   0  0  0  0  0  0  0  0  0  0  0  0
    4.5417    2.8958    0.0000 C   0  0  0  0  0  0  0  0  0  0  0  0
    2.6417   -3.9417    0.0000 O   0  0  0  0  0  0  0  0  0  0  0  0
    1.0542    1.7083    0.0000 O   0  0  0  0  0  0  0  0  0  0  0  0
   -0.9958   -2.4542    0.0000 C   0  0  0  0  0  0  0  0  0  0  0  0
    2.4292    0.0458    0.0000 C   0  0  0  0  0  0  0  0  0  0  0  0
    4.4917    1.3125    0.0000 C   0  0  0  0  0  0  0  0  0  0  0  0
    3.1042    2.0958    0.0000 C   0  0  0  0  0  0  0  0  0  0  0  0
    0.4292   -0.2917    0.0000 C   0  0  0  0  0  0  0  0  0  0  0  0
    4.2917   -2.8250    0.0000 C   0  0  0  0  0  0  0  0  0  0  0  0
    0.3792    0.5083    0.0000 O   0  0  0  0  0  0  0  0  0  0  0  0
   -1.3833   -4.0167    0.0000 C   0  0  0  0  0  0  0  0  0  0  0  0
    3.7042   -3.1917    0.0000 C   0  0  0  0  0  0  0  0  0  0  0  0
    3.0917    2.8583    0.0000 C   0  0  0  0  0  0  0  0  0  0  0  0
    3.7917    1.7333    0.0000 C   0  0  0  0  0  0  0  0  0  0  0  0
   -0.2583    0.8750    0.0000 C   0  0  0  0  0  0  0  0  0  0  0  0
    3.7667    3.2333    0.0000 C   0  0  0  0  0  0  0  0  0  0  0  0
  2  1  1  0
  3  9  1  0
  4  2  1  0
  5  1  1  0
  3  6  1  0
  7 15  1  0
  8  5  1  0
  9  1  1  0
 10 12  1  0
 11  7  1  0
 12  3  1  0
 13 17  1  0
 14  4  1  0
 15 23  1  0
 16  7  1  0
  1 17  1  6
 18  8  1  0
  2 19  1  6
 20  2  1  0
 21  5  1  0
 22  6  1  0
 23 12  1  0
 24  8  1  0
 25  5  1  0
 26 27  1  0
 27 25  1  0
 18 28  1  0
 29 30  1  0
 20 30  1  6
  9 31  1  6
 14 32  1  6
 33 31  1  0
 34 32  1  0
  3 35  1  6
 36 28  2  0
 37 15  2  0
 38 28  1  0
 39 36  1  0
 40  6  1  0
 41 29  2  0
 42 27  2  0
 43 38  2  0
 44 33  2  0
 45 34  2  0
 46  7  1  0
  4 47  1  6
  8 48  1  6
 49 29  1  0
 50 10  1  0
 51 13  1  0
 52 34  1  0
 53 16  1  0
 54 33  1  0
 55 49  1  0
 56 49  1  0
 57 52  1  0
 58 55  1  0
 21 13  1  0
 13 19  1  0
  4  6  1  0
 24 20  1  0
 10 14  1  0
 10 22  1  0
 18 26  1  6
 43 39  1  0
 11 16  1  0
M  END
>  <ID>  (1833) 


>  <MOLENAME>  (1833) 
UTILIN

>  <therap>  (1833) 
nan

>  <ref>  (1833) 
J Chem Soc 1960:3827; Chem Commun 1970:1388

>  <cas#>  (1833) 
31218-22-1

>  <source>  (1833) 
Entandrophragma utile

>  <status>  (1833) 
undetermined activity

>  <tradename>  (1833) 
nan

>  <SMILES>  (1833) 
CCC(C)C(=O)O[C@@H]1C[C@@]2(C)[C@H](c3cocc3)OC(=O)CC23OC2(C)O[C@@]34[C@H](OC(C)=O)[C@@]3(O)C(OC(=O)C5(C)OC5C)C5(C)CC3(O)[C@@](C)([C@H]5CC(=O)OC)[C@@]14O2

>  <standardized_failed>  (1833) 
False

$$$$

     RDKit          2D

 18 19  0  0  0  0  0  0  0  0999 V2000
    5.5375   -2.5042    0.0000 C   0  0  0  0  0  0  0  0  0  0  0  0
    6.2542   -2.9250    0.0000 O   0  0  0  0  0  0  0  0  0  0  0  0
    4.8250   -2.9250    0.0000 C   0  0  0  0  0  0  0  0  0  0  0  0
    5.5417   -1.6792    0.0000 C   0  0  0  0  0  0  0  0  0  0  0  0
    6.9667   -2.5125    0.0000 C   0  0  0  0  0  0  0  0  0  0  0  0
    6.2542   -1.2667    0.0000 C   0  0  0  0  0  0  0  0  0  0  0  0
    4.1125   -2.5125    0.0000 C   0  0  0  0  0  0  0  0  0  0  0  0
    4.1125   -1.6875    0.0000 C   0  0  0  0  0  0  0  0  0  0  0  0
    6.9667   -1.6792    0.0000 C   0  0  0  0  0  0  0  0  0  0  0  0
    4.8250   -1.2667    0.0000 C   0  0  0  0  0  0  0  0  0  0  0  0
    7.6792   -2.9250    0.0000 O   0  0  0  0  0  0  0  0  0  0  0  0
    1.3417   -2.2125    0.0000 C   0  0  0  0  0  0  0  0  0  0  0  0
    2.1625   -2.2125    0.0000 C   0  0  0  0  0  0  0  0  0  0  0  0
    3.3917   -2.9250    0.0000 O   0  0  0  0  0  0  0  0  0  0  0  0
    3.4000   -1.2750    0.0000 O   0  0  0  0  0  0  0  0  0  0  0  0
    2.5750   -2.9250    0.0000 C   0  0  0  0  0  0  0  0  0  0  0  0
    0.9292   -1.5000    0.0000 C   0  0  0  0  0  0  0  0  0  0  0  0
    0.9292   -2.9250    0.0000 C   0  0  0  0  0  0  0  0  0  0  0  0
  2  1  1  0
  3  1  2  0
  4  1  1  0
  5  2  1  0
  6  4  1  0
  7  3  1  0
  8 10  1  0
  9  6  2  0
 10  4  2  0
 11  5  2  0
 12 13  2  0
 13 16  1  0
 14  7  1  0
 15  8  1  0
 16 14  1  0
 17 12  1  0
 18 12  1  0
  7  8  2  0
  5  9  1  0
M  END
>  <ID>  (1834) 


>  <MOLENAME>  (1834) 
PRENYLETIN

>  <therap>  (1834) 
nan

>  <ref>  (1834) 
J Chem Soc (C) 1967:145; Tet Lett 1967:2147

>  <cas#>  (1834) 
15870-91-4

>  <source>  (1834) 
Ptaeroxylon obliquum

>  <status>  (1834) 
undetermined activity

>  <tradename>  (1834) 
nan

>  <SMILES>  (1834) 
CC(C)=CCOc1c(O)cc2ccc(=O)oc2c1

>  <standardized_failed>  (1834) 
False

$$$$

     RDKit          2D

 34 38  0  0  0  0  0  0  0  0999 V2000
    4.3667   -4.5292    0.0000 C   0  0  0  0  0  0  0  0  0  0  0  0
    6.2167   -4.5292    0.0000 C   0  0  0  0  0  0  0  0  0  0  0  0
    5.3042   -3.9667    0.0000 C   0  0  0  0  0  0  0  0  0  0  0  0
    7.1667   -3.9667    0.0000 C   0  0  0  0  0  0  0  0  0  0  0  0
    4.3667   -5.6000    0.0000 C   0  0  0  0  0  0  0  0  0  0  0  0
    3.4292   -6.1500    0.0000 C   0  0  0  0  0  0  0  0  0  0  0  0
    7.1667   -2.9000    0.0000 C   0  0  0  0  0  0  0  0  0  0  0  0
    3.4292   -3.9667    0.0000 C   0  0  0  0  0  0  0  0  0  0  0  0
    2.5042   -5.6000    0.0000 C   0  0  0  0  0  0  0  0  0  0  0  0
    2.5042   -4.5292    0.0000 C   0  0  0  0  0  0  0  0  0  0  0  0
    8.0917   -2.3375    0.0000 C   0  0  0  0  0  0  0  0  0  0  0  0
    6.2167   -6.6042    0.0000 C   0  0  0  0  0  0  0  0  0  0  0  0
    8.0917   -4.5292    0.0000 C   0  0  0  0  0  0  0  0  0  0  0  0
    9.0417   -2.9000    0.0000 O   0  0  0  0  0  0  0  0  0  0  0  0
    8.0917   -1.5125    0.0000 C   0  0  0  0  0  0  0  0  0  0  0  0
    9.0417   -3.9667    0.0000 C   0  0  0  0  0  0  0  0  0  0  0  0
    5.3042   -2.9000    0.0000 C   0  0  0  0  0  0  0  0  0  0  0  0
    6.2167   -2.3375    0.0000 C   0  0  0  0  0  0  0  0  0  0  0  0
    3.4292   -2.9000    0.0000 C   0  0  0  0  0  0  0  0  0  0  0  0
    2.5167   -2.3375    0.0000 C   0  0  0  0  0  0  0  0  0  0  0  0
    5.1792   -6.1000    0.0000 O   0  0  0  0  0  0  0  0  0  0  0  0
    8.8000   -0.7417    0.0000 C   0  0  0  0  0  0  0  0  0  0  0  0
    1.6292   -6.0500    0.0000 O   0  0  0  0  0  0  0  0  0  0  0  0
    7.0792   -1.0125    0.0000 C   0  0  0  0  0  0  0  0  0  0  0  0
    8.3000    0.2333    0.0000 O   0  0  0  0  0  0  0  0  0  0  0  0
    9.9917   -4.5292    0.0000 O   0  0  0  0  0  0  0  0  0  0  0  0
    7.2500    0.0458    0.0000 C   0  0  0  0  0  0  0  0  0  0  0  0
    2.5167   -1.2667    0.0000 O   0  0  0  0  0  0  0  0  0  0  0  0
    3.5542   -5.0667    0.0000 C   0  0  0  0  0  0  0  0  0  0  0  0
    7.1667   -1.8000    0.0000 C   0  0  0  0  0  0  0  0  0  0  0  0
    1.7167   -5.0500    0.0000 C   0  0  0  0  0  0  0  0  0  0  0  0
    2.5042   -3.4875    0.0000 C   0  0  0  0  0  0  0  0  0  0  0  0
    1.6042   -2.9000    0.0000 O   0  0  0  0  0  0  0  0  0  0  0  0
    0.7417   -2.4000    0.0000 C   0  0  0  0  0  0  0  0  0  0  0  0
  2  3  2  0
  3  1  1  0
  4  2  1  0
  1  5  1  0
  6  5  1  0
  7 18  1  0
  8  1  1  0
  9 10  1  0
 10  8  1  0
 11  7  1  0
  6 12  1  1
 13  4  2  0
 11 14  1  6
 11 15  1  0
 16 13  1  0
 17  3  1  0
 18 17  1  0
  8 19  1  6
 20 19  1  0
 21  5  2  0
 22 15  2  0
 23  9  2  0
 24 15  1  0
 25 22  1  0
 26 16  2  0
 27 24  2  0
 28 20  2  0
  1 29  1  1
  7 30  1  6
 31 10  1  0
 32 10  1  0
 33 20  1  0
 34 33  1  0
  9  6  1  0
 12  2  1  0
  7  4  1  0
 14 16  1  0
 27 25  1  0
M  END
>  <ID>  (1835) 


>  <MOLENAME>  (1835) 
CARAPIN-8(9)-ENE

>  <therap>  (1835) 
nan

>  <ref>  (1835) 
Chem Commun 1965: 302

>  <cas#>  (1835) 
nan

>  <source>  (1835) 
Carapa and Cedrela species

>  <status>  (1835) 
undetermined activity

>  <tradename>  (1835) 
nan

>  <SMILES>  (1835) 
COC(=O)C[C@H]1C(C)(C)C(=O)[C@@H]2CC3=C(CC[C@]4(C)C3=CC(=O)O[C@H]4c3cocc3)[C@]1(C)C2=O

>  <standardized_failed>  (1835) 
False

$$$$

     RDKit          2D

 21 23  0  0  0  0  0  0  0  0999 V2000
    3.5917   -0.1375    0.0000 C   0  0  0  0  0  0  0  0  0  0  0  0
    3.5917   -0.9625    0.0000 C   0  0  0  0  0  0  0  0  0  0  0  0
    2.1667   -0.9625    0.0000 C   0  0  0  0  0  0  0  0  0  0  0  0
    2.8792   -1.3750    0.0000 C   0  0  0  0  0  0  0  0  0  0  0  0
    2.8792    0.2750    0.0000 O   0  0  0  0  0  0  0  0  0  0  0  0
    2.1667   -0.1375    0.0000 C   0  0  0  0  0  0  0  0  0  0  0  0
    4.3042    0.2750    0.0000 C   0  0  0  0  0  0  0  0  0  0  0  0
    1.4542   -1.3750    0.0000 C   0  0  0  0  0  0  0  0  0  0  0  0
    2.8792   -2.2000    0.0000 O   0  0  0  0  0  0  0  0  0  0  0  0
    1.4542    0.2750    0.0000 C   0  0  0  0  0  0  0  0  0  0  0  0
    4.3042    1.1083    0.0000 C   0  0  0  0  0  0  0  0  0  0  0  0
    5.0250   -0.1375    0.0000 C   0  0  0  0  0  0  0  0  0  0  0  0
    0.7375   -0.9625    0.0000 C   0  0  0  0  0  0  0  0  0  0  0  0
    5.7417    1.1083    0.0000 C   0  0  0  0  0  0  0  0  0  0  0  0
    0.7375   -0.1375    0.0000 C   0  0  0  0  0  0  0  0  0  0  0  0
    5.0167    1.5208    0.0000 C   0  0  0  0  0  0  0  0  0  0  0  0
    5.7417    0.2750    0.0000 C   0  0  0  0  0  0  0  0  0  0  0  0
    0.0167   -1.3750    0.0000 O   0  0  0  0  0  0  0  0  0  0  0  0
    6.4542    1.5208    0.0000 O   0  0  0  0  0  0  0  0  0  0  0  0
   -0.6958   -0.9625    0.0000 C   0  0  0  0  0  0  0  0  0  0  0  0
    7.1667    1.1125    0.0000 C   0  0  0  0  0  0  0  0  0  0  0  0
  2  1  2  0
  3  6  2  0
  4  2  1  0
  5  1  1  0
  6  5  1  0
  7  1  1  0
  8  3  1  0
  9  4  2  0
 10  6  1  0
 11  7  2  0
 12  7  1  0
 13 15  1  0
 14 17  1  0
 15 10  2  0
 16 11  1  0
 17 12  2  0
 18 13  1  0
 19 14  1  0
 20 18  1  0
 21 19  1  0
  3  4  1  0
 16 14  2  0
  8 13  2  0
M  END
>  <ID>  (1836) 


>  <MOLENAME>  (1836) 
6.4'-DIMETHOXYFLAVONE

>  <therap>  (1836) 
nan

>  <ref>  (1836) 
nan

>  <cas#>  (1836) 
54401-47-7

>  <source>  (1836) 
derivative Cassia spectabilis

>  <status>  (1836) 
undetermined activity

>  <tradename>  (1836) 
nan

>  <SMILES>  (1836) 
COc1ccc(-c2cc(=O)c3c(ccc(OC)c3)o2)cc1

>  <standardized_failed>  (1836) 
False

$$$$

     RDKit          2D

 37 41  0  0  0  0  0  0  0  0999 V2000
    6.1792   -4.2125    0.0000 C   0  0  0  0  0  0  0  0  0  0  0  0
    5.4625   -4.6042    0.0000 C   0  0  0  0  0  0  0  0  0  0  0  0
    6.1792   -3.3875    0.0000 C   0  0  0  0  0  0  0  0  0  0  0  0
    4.0167   -4.6042    0.0000 C   0  0  0  0  0  0  0  0  0  0  0  0
    4.7250   -4.2125    0.0000 C   0  0  0  0  0  0  0  0  0  0  0  0
    4.0167   -5.4417    0.0000 C   0  0  0  0  0  0  0  0  0  0  0  0
    6.8875   -2.9542    0.0000 C   0  0  0  0  0  0  0  0  0  0  0  0
    5.4625   -5.4167    0.0000 C   0  0  0  0  0  0  0  0  0  0  0  0
    3.3125   -5.8625    0.0000 C   0  0  0  0  0  0  0  0  0  0  0  0
    6.8875   -4.6042    0.0000 C   0  0  0  0  0  0  0  0  0  0  0  0
    7.5875   -3.3875    0.0000 O   0  0  0  0  0  0  0  0  0  0  0  0
    4.7667   -5.8292    0.0000 C   0  0  0  0  0  0  0  0  0  0  0  0
    6.8792   -2.1292    0.0000 C   0  0  0  0  0  0  0  0  0  0  0  0
    7.5875   -4.2125    0.0000 C   0  0  0  0  0  0  0  0  0  0  0  0
    2.6000   -5.4417    0.0000 C   0  0  0  0  0  0  0  0  0  0  0  0
    5.4625   -2.9542    0.0000 C   0  0  0  0  0  0  0  0  0  0  0  0
    4.7250   -3.3875    0.0000 C   0  0  0  0  0  0  0  0  0  0  0  0
    3.3125   -4.2125    0.0000 C   0  0  0  0  0  0  0  0  0  0  0  0
    6.1917   -5.7792    0.0000 O   0  0  0  0  0  0  0  0  0  0  0  0
    1.8792   -5.8500    0.0000 O   0  0  0  0  0  0  0  0  0  0  0  0
    6.2417   -6.6000    0.0000 C   0  0  0  0  0  0  0  0  0  0  0  0
    1.1667   -5.4375    0.0000 C   0  0  0  0  0  0  0  0  0  0  0  0
    7.4292   -1.5417    0.0000 C   0  0  0  0  0  0  0  0  0  0  0  0
    6.1417   -1.7542    0.0000 C   0  0  0  0  0  0  0  0  0  0  0  0
    7.0542   -0.8042    0.0000 O   0  0  0  0  0  0  0  0  0  0  0  0
    2.6000   -4.6042    0.0000 C   0  0  0  0  0  0  0  0  0  0  0  0
    8.3250   -4.6375    0.0000 O   0  0  0  0  0  0  0  0  0  0  0  0
    6.2417   -0.9625    0.0000 C   0  0  0  0  0  0  0  0  0  0  0  0
    1.1625   -4.6125    0.0000 O   0  0  0  0  0  0  0  0  0  0  0  0
    5.5625   -7.0542    0.0000 O   0  0  0  0  0  0  0  0  0  0  0  0
    5.4625   -3.6292    0.0000 C   0  0  0  0  0  0  0  0  0  0  0  0
    6.1792   -2.5542    0.0000 C   0  0  0  0  0  0  0  0  0  0  0  0
    4.0167   -3.6792    0.0000 C   0  0  0  0  0  0  0  0  0  0  0  0
    2.6000   -6.3000    0.0000 C   0  0  0  0  0  0  0  0  0  0  0  0
    4.0167   -6.3000    0.0000 C   0  0  0  0  0  0  0  0  0  0  0  0
    6.9875   -6.9667    0.0000 C   0  0  0  0  0  0  0  0  0  0  0  0
    0.4542   -5.8542    0.0000 C   0  0  0  0  0  0  0  0  0  0  0  0
  2  1  1  0
  3  1  1  0
  4  5  1  0
  5  2  1  0
  6 12  1  0
  7  3  1  0
  8  2  1  0
  9  6  1  0
 10  1  2  0
 11 14  1  0
 12  8  1  0
  7 13  1  0
 14 10  1  0
 15  9  1  0
 16  3  1  0
 17 16  1  0
 18  4  1  0
  8 19  1  6
 15 20  1  6
 21 19  1  0
 22 20  1  0
 23 13  2  0
 24 13  1  0
 25 23  1  0
 26 18  1  0
 27 14  2  0
 28 24  2  0
 29 22  2  0
 30 21  2  0
  2 31  1  1
  3 32  1  6
  4 33  1  1
 34  9  1  0
 35  9  1  0
 36 21  1  0
 37 22  1  0
  7 11  1  6
 17  5  1  0
  6  4  1  0
 28 25  1  0
 15 26  1  0
M  END
>  <ID>  (1837) 


>  <MOLENAME>  (1837) 
3alpha-ACETOXYDIHYDRODEOXYGEDUNIN

>  <therap>  (1837) 
nan

>  <ref>  (1837) 
nan

>  <cas#>  (1837) 
nan

>  <source>  (1837) 
Meliaceae spp

>  <status>  (1837) 
undetermined activity

>  <tradename>  (1837) 
nan

>  <SMILES>  (1837) 
CC(=O)O[C@@H]1CC[C@@]2(C)C(C[C@@H](OC(C)=O)[C@@]3(C)C4=CC(=O)O[C@@H](c5cocc5)[C@]4(C)CCC23)C1(C)C

>  <standardized_failed>  (1837) 
False

$$$$

     RDKit          2D

 31 36  0  0  0  0  0  0  0  0999 V2000
    7.2167   -2.8000    0.0000 C   0  0  0  0  0  0  0  0  0  0  0  0
    7.9292   -3.1917    0.0000 C   0  0  0  0  0  0  0  0  0  0  0  0
    7.2167   -1.9667    0.0000 C   0  0  0  0  0  0  0  0  0  0  0  0
    6.4917   -3.1917    0.0000 C   0  0  0  0  0  0  0  0  0  0  0  0
    7.2292   -3.5667    0.0000 O   0  0  0  0  0  0  0  0  0  0  0  0
    5.0417   -3.1917    0.0000 C   0  0  0  0  0  0  0  0  0  0  0  0
    8.6417   -2.8000    0.0000 C   0  0  0  0  0  0  0  0  0  0  0  0
    7.9292   -1.5375    0.0000 C   0  0  0  0  0  0  0  0  0  0  0  0
    8.6417   -1.9667    0.0000 O   0  0  0  0  0  0  0  0  0  0  0  0
    5.7542   -2.8000    0.0000 C   0  0  0  0  0  0  0  0  0  0  0  0
    5.0417   -4.0292    0.0000 C   0  0  0  0  0  0  0  0  0  0  0  0
    6.4917   -4.0083    0.0000 C   0  0  0  0  0  0  0  0  0  0  0  0
    4.3292   -4.4625    0.0000 C   0  0  0  0  0  0  0  0  0  0  0  0
    4.3292   -2.8000    0.0000 C   0  0  0  0  0  0  0  0  0  0  0  0
    5.7917   -4.4167    0.0000 C   0  0  0  0  0  0  0  0  0  0  0  0
    7.9250   -0.7125    0.0000 C   0  0  0  0  0  0  0  0  0  0  0  0
    6.4917   -1.5375    0.0000 C   0  0  0  0  0  0  0  0  0  0  0  0
    3.6042   -4.0292    0.0000 C   0  0  0  0  0  0  0  0  0  0  0  0
    3.6042   -3.1917    0.0000 C   0  0  0  0  0  0  0  0  0  0  0  0
    5.7542   -1.9667    0.0000 C   0  0  0  0  0  0  0  0  0  0  0  0
    9.3667   -3.2250    0.0000 O   0  0  0  0  0  0  0  0  0  0  0  0
    8.4792   -0.1125    0.0000 C   0  0  0  0  0  0  0  0  0  0  0  0
    7.1792   -0.3375    0.0000 C   0  0  0  0  0  0  0  0  0  0  0  0
    8.1042    0.6250    0.0000 O   0  0  0  0  0  0  0  0  0  0  0  0
    7.2917    0.4625    0.0000 C   0  0  0  0  0  0  0  0  0  0  0  0
    2.8792   -4.4458    0.0000 O   0  0  0  0  0  0  0  0  0  0  0  0
    7.2167   -1.1250    0.0000 C   0  0  0  0  0  0  0  0  0  0  0  0
    6.4792   -2.3917    0.0000 C   0  0  0  0  0  0  0  0  0  0  0  0
    5.0417   -2.2542    0.0000 C   0  0  0  0  0  0  0  0  0  0  0  0
    3.6042   -4.9000    0.0000 C   0  0  0  0  0  0  0  0  0  0  0  0
    5.0417   -4.9000    0.0000 C   0  0  0  0  0  0  0  0  0  0  0  0
  2  1  1  0
  3  1  1  0
  4  1  1  0
  1  5  1  1
  6 10  1  0
  7  2  1  0
  8  3  1  0
  8  9  1  6
 10  4  1  0
 11 15  1  0
 12  4  1  0
 13 11  1  0
 14  6  1  0
 15 12  2  0
  8 16  1  0
 17  3  1  0
 18 13  1  0
 19 14  2  0
 20 10  1  0
 21  7  2  0
 22 16  2  0
 23 16  1  0
 24 22  1  0
 25 23  2  0
 26 18  2  0
  3 27  1  6
  4 28  1  1
  6 29  1  1
 30 13  1  0
 31 13  1  0
  2  5  1  1
 20 17  1  0
  9  7  1  0
  6 11  1  0
 19 18  1  0
 25 24  1  0
M  END
>  <ID>  (1838) 


>  <MOLENAME>  (1838) 
7-DESACETOXY-6.7-DEHYDROGEDUNIN

>  <therap>  (1838) 
nan

>  <ref>  (1838) 
nan

>  <cas#>  (1838) 
nan

>  <source>  (1838) 
derivative of gedunin

>  <status>  (1838) 
undetermined activity

>  <tradename>  (1838) 
nan

>  <SMILES>  (1838) 
CC1(C)C(=O)C=C[C@@]2(C)C1C=C[C@]1(C)C2CC[C@@]2(C)[C@H](c3cocc3)OC(=O)[C@H]3O[C@]321

>  <standardized_failed>  (1838) 
False

$$$$

     RDKit          2D

 35 39  0  0  0  0  0  0  0  0999 V2000
    4.3917   -4.5167    0.0000 C   0  0  0  0  0  0  0  0  0  0  0  0
    7.1542   -3.9792    0.0000 C   0  0  0  0  0  0  0  0  0  0  0  0
    6.2167   -4.5167    0.0000 C   0  0  0  0  0  0  0  0  0  0  0  0
    4.3917   -5.5625    0.0000 C   0  0  0  0  0  0  0  0  0  0  0  0
    7.1542   -2.9000    0.0000 C   0  0  0  0  0  0  0  0  0  0  0  0
    3.4667   -6.1167    0.0000 C   0  0  0  0  0  0  0  0  0  0  0  0
    5.3042   -3.9792    0.0000 C   0  0  0  0  0  0  0  0  0  0  0  0
    3.4667   -3.9792    0.0000 C   0  0  0  0  0  0  0  0  0  0  0  0
    2.5417   -4.5167    0.0000 C   0  0  0  0  0  0  0  0  0  0  0  0
    8.0667   -2.3625    0.0000 C   0  0  0  0  0  0  0  0  0  0  0  0
    2.5417   -5.5625    0.0000 C   0  0  0  0  0  0  0  0  0  0  0  0
    6.2167   -6.5625    0.0000 C   0  0  0  0  0  0  0  0  0  0  0  0
    8.0667   -4.5167    0.0000 C   0  0  0  0  0  0  0  0  0  0  0  0
    9.0167   -3.9792    0.0000 C   0  0  0  0  0  0  0  0  0  0  0  0
    9.0167   -2.9000    0.0000 O   0  0  0  0  0  0  0  0  0  0  0  0
    8.0667   -1.5375    0.0000 C   0  0  0  0  0  0  0  0  0  0  0  0
    6.2167   -2.3625    0.0000 C   0  0  0  0  0  0  0  0  0  0  0  0
    5.3042   -2.9000    0.0000 C   0  0  0  0  0  0  0  0  0  0  0  0
    3.4667   -2.9000    0.0000 C   0  0  0  0  0  0  0  0  0  0  0  0
    2.5542   -2.3625    0.0000 C   0  0  0  0  0  0  0  0  0  0  0  0
    5.2542   -6.0667    0.0000 O   0  0  0  0  0  0  0  0  0  0  0  0
    8.7667   -0.7667    0.0000 C   0  0  0  0  0  0  0  0  0  0  0  0
    7.0667   -1.0500    0.0000 C   0  0  0  0  0  0  0  0  0  0  0  0
    8.2667    0.1833    0.0000 O   0  0  0  0  0  0  0  0  0  0  0  0
    7.2292   -0.0167    0.0000 C   0  0  0  0  0  0  0  0  0  0  0  0
    2.5542   -1.3000    0.0000 O   0  0  0  0  0  0  0  0  0  0  0  0
    3.4042   -5.0292    0.0000 C   0  0  0  0  0  0  0  0  0  0  0  0
    1.6667   -6.0292    0.0000 O   0  0  0  0  0  0  0  0  0  0  0  0
    9.9542   -4.5167    0.0000 O   0  0  0  0  0  0  0  0  0  0  0  0
    7.1542   -1.8167    0.0000 C   0  0  0  0  0  0  0  0  0  0  0  0
    1.7542   -5.0167    0.0000 C   0  0  0  0  0  0  0  0  0  0  0  0
    2.5417   -3.4792    0.0000 C   0  0  0  0  0  0  0  0  0  0  0  0
    1.6542   -2.9000    0.0000 O   0  0  0  0  0  0  0  0  0  0  0  0
    9.9667   -5.5417    0.0000 C   0  0  0  0  0  0  0  0  0  0  0  0
    0.8042   -2.4125    0.0000 C   0  0  0  0  0  0  0  0  0  0  0  0
  2  3  2  0
  3  7  1  0
  1  4  1  0
  5 17  1  0
  6  4  1  0
  7  1  1  0
  8  1  1  0
  9  8  1  0
 10  5  1  0
 11  9  1  0
 12  3  1  0
 13  2  1  0
 14 13  2  0
 10 15  1  6
 10 16  1  0
 17 18  1  0
 18  7  1  0
  8 19  1  6
 20 19  1  0
 21  4  2  0
 22 16  2  0
 23 16  1  0
 24 22  1  0
 25 23  2  0
 26 20  2  0
  1 27  1  1
 11 28  1  6
 29 14  1  0
  5 30  1  6
 31  9  1  0
 32  9  1  0
 33 20  1  0
 34 29  1  0
 35 33  1  0
  6 11  1  0
  6 12  1  1
  5  2  1  0
 15 14  1  0
 25 24  1  0
M  END
>  <ID>  (1839) 


>  <MOLENAME>  (1839) 
3-DEOXO-3beta-HYDROXYMEXICANOLIDE 16-ENOL ETHER

>  <therap>  (1839) 
nan

>  <ref>  (1839) 
nan

>  <cas#>  (1839) 
nan

>  <source>  (1839) 
derivative

>  <status>  (1839) 
undetermined activity

>  <tradename>  (1839) 
nan

>  <SMILES>  (1839) 
COC(=O)C[C@H]1C(C)(C)[C@@H](O)[C@@H]2CC3=C4C=C(OC)O[C@@H](c5cocc5)[C@]4(C)CCC3[C@]1(C)C2=O

>  <standardized_failed>  (1839) 
False

$$$$

     RDKit          2D

 20 22  0  0  0  0  0  0  0  0999 V2000
    5.2167   -4.1125    0.0000 C   0  0  0  0  0  0  0  0  0  0  0  0
    4.5000   -3.7042    0.0000 C   0  0  0  0  0  0  0  0  0  0  0  0
    3.7917   -4.1167    0.0000 C   0  0  0  0  0  0  0  0  0  0  0  0
    5.2167   -4.9417    0.0000 C   0  0  0  0  0  0  0  0  0  0  0  0
    3.7917   -4.9417    0.0000 C   0  0  0  0  0  0  0  0  0  0  0  0
    4.5042   -5.3542    0.0000 O   0  0  0  0  0  0  0  0  0  0  0  0
    5.9250   -3.6917    0.0000 C   0  0  0  0  0  0  0  0  0  0  0  0
    3.0750   -3.7042    0.0000 C   0  0  0  0  0  0  0  0  0  0  0  0
    3.0750   -5.3625    0.0000 C   0  0  0  0  0  0  0  0  0  0  0  0
    4.4917   -2.8792    0.0000 O   0  0  0  0  0  0  0  0  0  0  0  0
    5.9167   -2.8750    0.0000 C   0  0  0  0  0  0  0  0  0  0  0  0
    6.6417   -4.1042    0.0000 C   0  0  0  0  0  0  0  0  0  0  0  0
    2.3625   -4.9500    0.0000 C   0  0  0  0  0  0  0  0  0  0  0  0
    2.3625   -4.1250    0.0000 C   0  0  0  0  0  0  0  0  0  0  0  0
    7.3500   -2.8667    0.0000 C   0  0  0  0  0  0  0  0  0  0  0  0
    7.3542   -3.6917    0.0000 C   0  0  0  0  0  0  0  0  0  0  0  0
    6.6292   -2.4542    0.0000 C   0  0  0  0  0  0  0  0  0  0  0  0
    1.6417   -5.3625    0.0000 O   0  0  0  0  0  0  0  0  0  0  0  0
    8.0625   -2.4417    0.0000 O   0  0  0  0  0  0  0  0  0  0  0  0
    8.7792   -2.8542    0.0000 C   0  0  0  0  0  0  0  0  0  0  0  0
  2  1  1  0
  3  2  1  0
  4  1  2  0
  5  6  1  0
  6  4  1  0
  7  1  1  0
  8  3  2  0
  9  5  2  0
 10  2  2  0
 11  7  2  0
 12  7  1  0
 13  9  1  0
 14  8  1  0
 15 16  1  0
 16 12  2  0
 17 11  1  0
 18 13  1  0
 19 15  1  0
 20 19  1  0
 15 17  2  0
  5  3  1  0
 13 14  2  0
M  END
>  <ID>  (1840) 


>  <MOLENAME>  (1840) 
FORMONONETIN

>  <therap>  (1840) 
phytoestrogen

>  <ref>  (1840) 
J Chem Soc 1933: 274

>  <cas#>  (1840) 
485-72-3

>  <source>  (1840) 
soyabean and clover species

>  <status>  (1840) 
experimental

>  <tradename>  (1840) 
nan

>  <SMILES>  (1840) 
COc1ccc(-c2coc3cc(O)ccc3c2=O)cc1

>  <standardized_failed>  (1840) 
False

$$$$

     RDKit          2D

 33 38  0  0  0  0  0  0  0  0999 V2000
    6.8750   -4.6417    0.0000 C   0  0  0  0  0  0  0  0  0  0  0  0
    7.5875   -5.0542    0.0000 C   0  0  0  0  0  0  0  0  0  0  0  0
    6.1625   -5.0542    0.0000 C   0  0  0  0  0  0  0  0  0  0  0  0
    6.8750   -3.8167    0.0000 C   0  0  0  0  0  0  0  0  0  0  0  0
    6.8750   -5.4750    0.0000 O   0  0  0  0  0  0  0  0  0  0  0  0
    4.7292   -5.0542    0.0000 C   0  0  0  0  0  0  0  0  0  0  0  0
    5.4417   -4.6417    0.0000 C   0  0  0  0  0  0  0  0  0  0  0  0
    8.3042   -4.6417    0.0000 C   0  0  0  0  0  0  0  0  0  0  0  0
    4.7292   -5.8875    0.0000 C   0  0  0  0  0  0  0  0  0  0  0  0
    7.5875   -3.4042    0.0000 C   0  0  0  0  0  0  0  0  0  0  0  0
    6.1625   -5.8875    0.0000 C   0  0  0  0  0  0  0  0  0  0  0  0
    8.3042   -3.8167    0.0000 O   0  0  0  0  0  0  0  0  0  0  0  0
    4.0167   -4.6417    0.0000 C   0  0  0  0  0  0  0  0  0  0  0  0
    4.0167   -6.3000    0.0000 C   0  0  0  0  0  0  0  0  0  0  0  0
    5.4500   -6.3000    0.0000 C   0  0  0  0  0  0  0  0  0  0  0  0
    7.5875   -2.5792    0.0000 C   0  0  0  0  0  0  0  0  0  0  0  0
    3.3000   -5.0542    0.0000 C   0  0  0  0  0  0  0  0  0  0  0  0
    6.1625   -3.4042    0.0000 C   0  0  0  0  0  0  0  0  0  0  0  0
    3.3000   -5.8875    0.0000 C   0  0  0  0  0  0  0  0  0  0  0  0
    5.4417   -3.8167    0.0000 C   0  0  0  0  0  0  0  0  0  0  0  0
    9.0250   -5.0542    0.0000 O   0  0  0  0  0  0  0  0  0  0  0  0
    8.1667   -2.0000    0.0000 C   0  0  0  0  0  0  0  0  0  0  0  0
    6.8792   -6.3125    0.0000 O   0  0  0  0  0  0  0  0  0  0  0  0
    4.0167   -3.8167    0.0000 O   0  0  0  0  0  0  0  0  0  0  0  0
    6.8625   -2.2042    0.0000 C   0  0  0  0  0  0  0  0  0  0  0  0
    7.7917   -1.2750    0.0000 O   0  0  0  0  0  0  0  0  0  0  0  0
    6.9917   -1.3875    0.0000 C   0  0  0  0  0  0  0  0  0  0  0  0
    6.1667   -4.3042    0.0000 C   0  0  0  0  0  0  0  0  0  0  0  0
    6.8750   -2.9917    0.0000 C   0  0  0  0  0  0  0  0  0  0  0  0
    4.7375   -4.2417    0.0000 C   0  0  0  0  0  0  0  0  0  0  0  0
    2.5792   -6.3042    0.0000 O   0  0  0  0  0  0  0  0  0  0  0  0
    4.3917   -6.9667    0.0000 C   0  0  0  0  0  0  0  0  0  0  0  0
    3.6000   -7.0167    0.0000 C   0  0  0  0  0  0  0  0  0  0  0  0
  2  1  1  0
  3  1  1  0
  4  1  1  0
  1  5  1  1
  6  7  1  0
  7  3  1  0
  8  2  1  0
  9 15  1  0
 10  4  1  0
 11  3  1  0
 10 12  1  6
 13  6  1  0
 14  9  1  0
 15 11  1  0
 10 16  1  0
 17 13  1  0
 18  4  1  0
 19 14  1  0
 20 18  1  0
 21  8  2  0
 22 16  2  0
 23 11  2  0
 24 13  2  0
 25 16  1  0
 26 22  1  0
 27 25  2  0
  3 28  1  1
  4 29  1  6
  6 30  1  1
 19 31  1  6
 32 14  1  0
 33 14  1  0
  2  5  1  1
 20  7  1  0
  8 12  1  0
  6  9  1  0
 27 26  1  0
 19 17  1  0
M  END
>  <ID>  (1841) 


>  <MOLENAME>  (1841) 
1.7-DIDEACETOXY-1.7-DIOXO-3-DEACETYLKHIVORIN

>  <therap>  (1841) 
nan

>  <ref>  (1841) 
nan

>  <cas#>  (1841) 
nan

>  <source>  (1841) 
Meliaceae spp

>  <status>  (1841) 
undetermined activity

>  <tradename>  (1841) 
nan

>  <SMILES>  (1841) 
CC1(C)C2CC(=O)[C@]3(C)C(CC[C@@]4(C)[C@H](c5cocc5)OC(=O)[C@H]5O[C@]543)[C@@]2(C)C(=O)C[C@H]1O

>  <standardized_failed>  (1841) 
False

$$$$

     RDKit          2D

 23 26  0  0  0  0  0  0  0  0999 V2000
    1.7542    1.8083    0.0000 C   0  0  0  0  0  0  0  0  0  0  0  0
   -0.3958    0.5708    0.0000 C   0  0  0  0  0  0  0  0  0  0  0  0
    1.7542    0.9833    0.0000 C   0  0  0  0  0  0  0  0  0  0  0  0
    0.3167    0.9833    0.0000 C   0  0  0  0  0  0  0  0  0  0  0  0
    1.0375    0.5708    0.0000 C   0  0  0  0  0  0  0  0  0  0  0  0
    2.5375    2.0625    0.0000 C   0  0  0  0  0  0  0  0  0  0  0  0
   -0.3958   -0.2542    0.0000 C   0  0  0  0  0  0  0  0  0  0  0  0
    1.0292    2.2208    0.0000 C   0  0  0  0  0  0  0  0  0  0  0  0
    0.3167    1.8083    0.0000 C   0  0  0  0  0  0  0  0  0  0  0  0
    2.5375    0.7250    0.0000 C   0  0  0  0  0  0  0  0  0  0  0  0
   -1.1083    0.9833    0.0000 C   0  0  0  0  0  0  0  0  0  0  0  0
    3.0167    1.3958    0.0000 C   0  0  0  0  0  0  0  0  0  0  0  0
    1.0375   -0.2542    0.0000 C   0  0  0  0  0  0  0  0  0  0  0  0
    2.8750    2.8208    0.0000 C   0  0  0  0  0  0  0  0  0  0  0  0
    0.3167   -0.6667    0.0000 C   0  0  0  0  0  0  0  0  0  0  0  0
   -1.1083   -0.6667    0.0000 C   0  0  0  0  0  0  0  0  0  0  0  0
    3.6917    2.9083    0.0000 O   0  0  0  0  0  0  0  0  0  0  0  0
    1.7500    2.6333    0.0000 C   0  0  0  0  0  0  0  0  0  0  0  0
   -1.8208    0.5708    0.0000 C   0  0  0  0  0  0  0  0  0  0  0  0
   -1.8208   -0.2542    0.0000 C   0  0  0  0  0  0  0  0  0  0  0  0
   -0.3833    1.4083    0.0000 C   0  0  0  0  0  0  0  0  0  0  0  0
   -2.5458   -0.6792    0.0000 O   0  0  0  0  0  0  0  0  0  0  0  0
    2.3792    3.4875    0.0000 C   0  0  0  0  0  0  0  0  0  0  0  0
  2  4  1  0
  3  1  1  0
  4  9  1  0
  5  3  1  0
  6  1  1  0
  7  2  1  0
  8  1  1  0
  9  8  1  0
  3 10  1  1
 11  2  1  0
 12  6  1  0
 13  5  1  0
 14  6  1  0
 15 13  1  0
  7 16  1  1
 17 14  2  0
  1 18  1  1
 19 11  1  0
 20 19  1  0
  2 21  1  1
 20 22  1  6
 23 14  1  0
 10 12  1  0
  4  5  1  0
  7 15  1  0
 16 20  1  0
M  END
>  <ID>  (1842) 


>  <MOLENAME>  (1842) 
ALLOPREGNANOLONE

>  <therap>  (1842) 
nan

>  <ref>  (1842) 
J Am Chem Soc 59: 616 (1937)

>  <cas#>  (1842) 
nan

>  <source>  (1842) 
semisynthetic

>  <status>  (1842) 
undetermined activity

>  <tradename>  (1842) 
nan

>  <SMILES>  (1842) 
CC(=O)C1CC[C@H]2C3CC[C@H]4C[C@H](O)CC[C@]4(C)C3CC[C@]12C

>  <standardized_failed>  (1842) 
False

$$$$

     RDKit          2D

 48 52  0  0  0  0  0  0  0  0999 V2000
    8.9000   -2.6417    0.0000 C   0  0  0  0  0  0  0  0  0  0  0  0
    7.4750   -2.6542    0.0000 C   0  0  0  0  0  0  0  0  0  0  0  0
    8.1792   -2.2375    0.0000 C   0  0  0  0  0  0  0  0  0  0  0  0
    7.4750   -3.4792    0.0000 C   0  0  0  0  0  0  0  0  0  0  0  0
    8.9042   -3.4750    0.0000 C   0  0  0  0  0  0  0  0  0  0  0  0
    8.1917   -3.8917    0.0000 O   0  0  0  0  0  0  0  0  0  0  0  0
   10.3250   -1.8125    0.0000 C   0  0  0  0  0  0  0  0  0  0  0  0
    4.4917   -3.8792    0.0000 C   0  0  0  0  0  0  0  0  0  0  0  0
   10.3250   -0.9875    0.0000 C   0  0  0  0  0  0  0  0  0  0  0  0
    4.0625   -4.5875    0.0000 C   0  0  0  0  0  0  0  0  0  0  0  0
    6.7542   -3.8917    0.0000 C   0  0  0  0  0  0  0  0  0  0  0  0
    9.6125   -2.2292    0.0000 O   0  0  0  0  0  0  0  0  0  0  0  0
    3.2417   -4.5667    0.0000 C   0  0  0  0  0  0  0  0  0  0  0  0
   11.0417   -0.5750    0.0000 C   0  0  0  0  0  0  0  0  0  0  0  0
    6.0417   -3.4792    0.0000 C   0  0  0  0  0  0  0  0  0  0  0  0
    4.1042   -3.1542    0.0000 O   0  0  0  0  0  0  0  0  0  0  0  0
    6.7542   -2.2417    0.0000 C   0  0  0  0  0  0  0  0  0  0  0  0
   11.0417   -2.2292    0.0000 O   0  0  0  0  0  0  0  0  0  0  0  0
    2.8417   -3.8500    0.0000 C   0  0  0  0  0  0  0  0  0  0  0  0
   11.7625   -0.9875    0.0000 C   0  0  0  0  0  0  0  0  0  0  0  0
    3.2750   -3.1375    0.0000 C   0  0  0  0  0  0  0  0  0  0  0  0
    5.3292   -3.8917    0.0000 O   0  0  0  0  0  0  0  0  0  0  0  0
    6.0417   -2.6542    0.0000 C   0  0  0  0  0  0  0  0  0  0  0  0
   11.7625   -1.8125    0.0000 C   0  0  0  0  0  0  0  0  0  0  0  0
    6.7625   -4.7167    0.0000 C   0  0  0  0  0  0  0  0  0  0  0  0
    9.6167   -3.8792    0.0000 C   0  0  0  0  0  0  0  0  0  0  0  0
    6.0500   -5.1375    0.0000 C   0  0  0  0  0  0  0  0  0  0  0  0
    8.1792   -1.4125    0.0000 O   0  0  0  0  0  0  0  0  0  0  0  0
    6.0500   -5.9625    0.0000 C   0  0  0  0  0  0  0  0  0  0  0  0
    4.4625   -5.3167    0.0000 O   0  0  0  0  0  0  0  0  0  0  0  0
    9.6125   -0.5750    0.0000 O   0  0  0  0  0  0  0  0  0  0  0  0
    9.6167   -4.7042    0.0000 C   0  0  0  0  0  0  0  0  0  0  0  0
   10.3250   -3.4667    0.0000 C   0  0  0  0  0  0  0  0  0  0  0  0
    2.8125   -5.2750    0.0000 O   0  0  0  0  0  0  0  0  0  0  0  0
   11.0417    0.2583    0.0000 O   0  0  0  0  0  0  0  0  0  0  0  0
    6.7542   -1.4167    0.0000 O   0  0  0  0  0  0  0  0  0  0  0  0
    2.0042   -3.8292    0.0000 O   0  0  0  0  0  0  0  0  0  0  0  0
   12.4750   -0.5750    0.0000 O   0  0  0  0  0  0  0  0  0  0  0  0
   11.0500   -4.7000    0.0000 C   0  0  0  0  0  0  0  0  0  0  0  0
   10.3292   -5.1167    0.0000 C   0  0  0  0  0  0  0  0  0  0  0  0
   11.0417   -3.8667    0.0000 C   0  0  0  0  0  0  0  0  0  0  0  0
    2.8792   -2.4042    0.0000 C   0  0  0  0  0  0  0  0  0  0  0  0
   11.7667   -5.1125    0.0000 O   0  0  0  0  0  0  0  0  0  0  0  0
    3.3125   -1.7000    0.0000 O   0  0  0  0  0  0  0  0  0  0  0  0
   12.4750   -2.2292    0.0000 C   0  0  0  0  0  0  0  0  0  0  0  0
    5.3375   -6.3750    0.0000 C   0  0  0  0  0  0  0  0  0  0  0  0
    6.7667   -6.3667    0.0000 C   0  0  0  0  0  0  0  0  0  0  0  0
   11.7667   -5.9375    0.0000 C   0  0  0  0  0  0  0  0  0  0  0  0
  2  3  1  0
  3  1  1  0
  4  6  1  0
  5  1  2  0
  6  5  1  0
  7 12  1  1
  8 22  1  1
  9  7  1  0
 10  8  1  0
 11  4  2  0
 12  1  1  0
 13 10  1  0
 14  9  1  0
 15 11  1  0
 16  8  1  0
 17  2  2  0
 18  7  1  0
 19 21  1  0
 20 24  1  0
 21 16  1  0
 22 15  1  0
 23 17  1  0
 24 18  1  0
 25 11  1  0
 26  5  1  0
 27 25  1  0
 28  3  2  0
 29 27  2  0
 10 30  1  6
  9 31  1  6
 32 26  2  0
 33 26  1  0
 13 34  1  1
 14 35  1  6
 36 17  1  0
 19 37  1  6
 20 38  1  1
 39 41  1  0
 40 32  1  0
 41 33  2  0
 21 42  1  1
 43 39  1  0
 44 42  1  0
 24 45  1  6
 46 29  1  0
 47 29  1  0
 48 43  1  0
  2  4  1  0
 40 39  2  0
 23 15  2  0
 14 20  1  0
 13 19  1  0
M  END
>  <ID>  (1843) 


>  <MOLENAME>  (1843) 
ICARIIN

>  <therap>  (1843) 
hepatoprotective

>  <ref>  (1843) 
Planta Med 61: 523 (1995); J Chromatog A 963: 239 (2002)

>  <cas#>  (1843) 
489-32-7

>  <source>  (1843) 
Epimedium spp

>  <status>  (1843) 
experimental

>  <tradename>  (1843) 
nan

>  <SMILES>  (1843) 
COc1ccc(-c2c(O[C@@H]3O[C@@H](C)[C@H](O)[C@@H](O)[C@H]3O)c(=O)c3c(O)cc(O[C@@H]4O[C@H](CO)[C@@H](O)[C@H](O)[C@H]4O)c(CC=C(C)C)c3o2)cc1

>  <standardized_failed>  (1843) 
False

$$$$

     RDKit          2D

 17 18  0  0  0  0  0  0  0  0999 V2000
    3.9667   -0.9417    0.0000 C   0  0  0  0  0  0  0  0  0  0  0  0
    3.5167   -0.3750    0.0000 C   0  0  0  0  0  0  0  0  0  0  0  0
    4.7917   -0.9417    0.0000 C   0  0  0  0  0  0  0  0  0  0  0  0
    6.4417   -0.9375    0.0000 C   0  0  0  0  0  0  0  0  0  0  0  0
    6.0292   -1.6500    0.0000 C   0  0  0  0  0  0  0  0  0  0  0  0
    6.0292   -0.2167    0.0000 C   0  0  0  0  0  0  0  0  0  0  0  0
    2.6917   -0.3750    0.0000 C   0  0  0  0  0  0  0  0  0  0  0  0
    5.2042   -1.6500    0.0000 C   0  0  0  0  0  0  0  0  0  0  0  0
    5.2042   -0.2292    0.0000 C   0  0  0  0  0  0  0  0  0  0  0  0
    1.0500   -0.3792    0.0000 C   0  0  0  0  0  0  0  0  0  0  0  0
    6.4417    0.4875    0.0000 O   0  0  0  0  0  0  0  0  0  0  0  0
    6.4417   -2.3667    0.0000 O   0  0  0  0  0  0  0  0  0  0  0  0
    2.2792    0.3375    0.0000 C   0  0  0  0  0  0  0  0  0  0  0  0
    2.2792   -1.0875    0.0000 C   0  0  0  0  0  0  0  0  0  0  0  0
    1.4542    0.3333    0.0000 C   0  0  0  0  0  0  0  0  0  0  0  0
    1.4542   -1.0875    0.0000 C   0  0  0  0  0  0  0  0  0  0  0  0
    0.2250   -0.3792    0.0000 O   0  0  0  0  0  0  0  0  0  0  0  0
  2  1  2  0
  3  1  1  0
  4  6  2  0
  5  8  2  0
  6  9  1  0
  7  2  1  0
  8  3  1  0
  9  3  2  0
 10 16  2  0
 11  6  1  0
 12  5  1  0
 13  7  1  0
 14  7  2  0
 15 13  2  0
 16 14  1  0
 17 10  1  0
  5  4  1  0
 15 10  1  0
M  END
>  <ID>  (1844) 


>  <MOLENAME>  (1844) 
RESVERATROL

>  <therap>  (1844) 
antifungal, antibacterial

>  <ref>  (1844) 
Aust J Chem 24:2427 (1971); Tet Lett 1972:2965; Phytochemistry 13:633 (1974); 15:1791, 2006 (1976); 32:1083 (1993)

>  <cas#>  (1844) 
501-36-0

>  <source>  (1844) 
Veratrum grandiflorum, Pinus sibirica, Vitis vinifera, Arachis hypogaea

>  <status>  (1844) 
experimental

>  <tradename>  (1844) 
nan

>  <SMILES>  (1844) 
Oc1ccc(/C=C/c2cc(O)cc(O)c2)cc1

>  <standardized_failed>  (1844) 
False

$$$$

     RDKit          2D

 17 19  0  0  0  0  0  0  0  0999 V2000
    4.5042   -3.4500    0.0000 O   0  0  0  0  0  0  0  0  0  0  0  0
    4.5042   -5.1000    0.0000 C   0  0  0  0  0  0  0  0  0  0  0  0
    3.7917   -4.6875    0.0000 C   0  0  0  0  0  0  0  0  0  0  0  0
    3.7917   -3.8625    0.0000 C   0  0  0  0  0  0  0  0  0  0  0  0
    5.2250   -3.8625    0.0000 C   0  0  0  0  0  0  0  0  0  0  0  0
    5.2250   -4.6875    0.0000 C   0  0  0  0  0  0  0  0  0  0  0  0
    4.5042   -5.9250    0.0000 O   0  0  0  0  0  0  0  0  0  0  0  0
    5.9375   -3.4417    0.0000 C   0  0  0  0  0  0  0  0  0  0  0  0
    3.0792   -5.1000    0.0000 C   0  0  0  0  0  0  0  0  0  0  0  0
    3.0792   -3.4500    0.0000 C   0  0  0  0  0  0  0  0  0  0  0  0
    6.6417   -3.8625    0.0000 C   0  0  0  0  0  0  0  0  0  0  0  0
    5.9292   -2.6250    0.0000 C   0  0  0  0  0  0  0  0  0  0  0  0
    2.3667   -4.6875    0.0000 C   0  0  0  0  0  0  0  0  0  0  0  0
    2.3667   -3.8625    0.0000 C   0  0  0  0  0  0  0  0  0  0  0  0
    6.6417   -2.2125    0.0000 C   0  0  0  0  0  0  0  0  0  0  0  0
    7.3625   -3.4500    0.0000 C   0  0  0  0  0  0  0  0  0  0  0  0
    7.3625   -2.6250    0.0000 C   0  0  0  0  0  0  0  0  0  0  0  0
  2  6  1  0
  3  4  2  0
  4  1  1  0
  5  1  1  0
  6  5  1  0
  7  2  2  0
  8  5  1  0
  9  3  1  0
 10  4  1  0
 11  8  2  0
 12  8  1  0
 13 14  1  0
 14 10  2  0
 15 12  2  0
 16 11  1  0
 17 15  1  0
  3  2  1  0
 13  9  2  0
 17 16  2  0
M  END
>  <ID>  (1845) 


>  <MOLENAME>  (1845) 
FLAVANONE

>  <therap>  (1845) 
nan

>  <ref>  (1845) 
nan

>  <cas#>  (1845) 
487-26-3

>  <source>  (1845) 
synthetic

>  <status>  (1845) 
undetermined activity

>  <tradename>  (1845) 
nan

>  <SMILES>  (1845) 
O=C1CC(c2ccccc2)Oc2c1cccc2

>  <standardized_failed>  (1845) 
False

$$$$

     RDKit          2D

 37 41  0  0  0  0  0  0  0  0999 V2000
    4.2792   -0.1542    0.0000 C   0  0  0  0  0  0  0  0  0  0  0  0
    4.9917   -0.5667    0.0000 C   0  0  0  0  0  0  0  0  0  0  0  0
    3.5667   -0.5667    0.0000 C   0  0  0  0  0  0  0  0  0  0  0  0
    4.2792    0.6708    0.0000 C   0  0  0  0  0  0  0  0  0  0  0  0
    4.2792   -0.9792    0.0000 O   0  0  0  0  0  0  0  0  0  0  0  0
    2.1292   -0.5667    0.0000 C   0  0  0  0  0  0  0  0  0  0  0  0
    2.8500   -0.1542    0.0000 C   0  0  0  0  0  0  0  0  0  0  0  0
    5.7042   -0.1542    0.0000 C   0  0  0  0  0  0  0  0  0  0  0  0
    2.1292   -1.3917    0.0000 C   0  0  0  0  0  0  0  0  0  0  0  0
    3.5667   -1.3917    0.0000 C   0  0  0  0  0  0  0  0  0  0  0  0
    4.9917    1.0833    0.0000 C   0  0  0  0  0  0  0  0  0  0  0  0
    5.7042    0.6708    0.0000 O   0  0  0  0  0  0  0  0  0  0  0  0
    1.4167   -1.8042    0.0000 C   0  0  0  0  0  0  0  0  0  0  0  0
    1.4167   -0.1542    0.0000 C   0  0  0  0  0  0  0  0  0  0  0  0
    0.7042   -1.3917    0.0000 C   0  0  0  0  0  0  0  0  0  0  0  0
    2.8542   -1.8042    0.0000 C   0  0  0  0  0  0  0  0  0  0  0  0
    0.7042   -0.5667    0.0000 C   0  0  0  0  0  0  0  0  0  0  0  0
    3.5667    1.0833    0.0000 C   0  0  0  0  0  0  0  0  0  0  0  0
    4.9917    1.9083    0.0000 C   0  0  0  0  0  0  0  0  0  0  0  0
    2.8500    0.6708    0.0000 C   0  0  0  0  0  0  0  0  0  0  0  0
    1.4167    0.6708    0.0000 O   0  0  0  0  0  0  0  0  0  0  0  0
   -0.0208   -1.8167    0.0000 O   0  0  0  0  0  0  0  0  0  0  0  0
    0.7042    1.0833    0.0000 C   0  0  0  0  0  0  0  0  0  0  0  0
   -0.0125   -2.6417    0.0000 C   0  0  0  0  0  0  0  0  0  0  0  0
    6.4292   -0.5667    0.0000 O   0  0  0  0  0  0  0  0  0  0  0  0
    4.2875   -1.8167    0.0000 O   0  0  0  0  0  0  0  0  0  0  0  0
    4.2750    2.3208    0.0000 O   0  0  0  0  0  0  0  0  0  0  0  0
    0.7042    1.9125    0.0000 O   0  0  0  0  0  0  0  0  0  0  0  0
    0.7042   -3.0542    0.0000 O   0  0  0  0  0  0  0  0  0  0  0  0
    3.5500    0.2500    0.0000 C   0  0  0  0  0  0  0  0  0  0  0  0
    4.2792    1.5000    0.0000 C   0  0  0  0  0  0  0  0  0  0  0  0
    2.1167    0.2500    0.0000 C   0  0  0  0  0  0  0  0  0  0  0  0
    5.7042    2.3208    0.0000 O   0  0  0  0  0  0  0  0  0  0  0  0
    2.1292   -2.2167    0.0000 C   0  0  0  0  0  0  0  0  0  0  0  0
    0.7042   -2.2167    0.0000 C   0  0  0  0  0  0  0  0  0  0  0  0
   -0.0083    0.6708    0.0000 C   0  0  0  0  0  0  0  0  0  0  0  0
   -0.7250   -3.0542    0.0000 C   0  0  0  0  0  0  0  0  0  0  0  0
  2  1  1  0
  3  1  1  0
  4  1  1  0
  5  1  1  0
  6  7  1  0
  7  3  1  0
  8  2  1  0
  9 16  1  0
 10  3  1  0
 11  4  1  0
 12 11  1  0
 13  9  1  0
 14  6  1  0
 15 13  1  0
 16 10  1  0
 17 14  1  0
 18  4  1  0
 11 19  1  6
 20 18  1  0
 14 21  1  6
 15 22  1  6
 23 21  1  0
 24 22  1  0
 25  8  2  0
 26 10  2  0
 27 19  2  0
 28 23  2  0
 29 24  2  0
  3 30  1  1
  4 31  1  6
  6 32  1  1
 33 19  1  0
 34 13  1  0
 35 13  1  0
 36 23  1  0
 37 24  1  0
  2  5  1  0
 20  7  1  0
  8 12  1  0
  6  9  1  0
 15 17  1  0
M  END
>  <ID>  (1846) 


>  <MOLENAME>  (1846) 
DEACETOXY(7)-7-OXOKHIVORINIC ACID

>  <therap>  (1846) 
nan

>  <ref>  (1846) 
nan

>  <cas#>  (1846) 
nan

>  <source>  (1846) 
derivative

>  <status>  (1846) 
undetermined activity

>  <tradename>  (1846) 
nan

>  <SMILES>  (1846) 
CC(=O)O[C@H]1C[C@@H](OC(C)=O)C(C)(C)C2CC(=O)[C@]3(C)C(CC[C@@]4(C)[C@H](C(=O)O)OC(=O)C5OC543)[C@]21C

>  <standardized_failed>  (1846) 
False

$$$$

     RDKit          2D

 41 43  0  0  0  0  0  0  0  0999 V2000
    1.3000   -0.0875    0.0000 C   0  0  0  0  0  0  0  0  0  0  0  0
    1.9542   -0.4625    0.0000 C   0  0  0  0  0  0  0  0  0  0  0  0
    2.6042   -0.0875    0.0000 C   0  0  0  0  0  0  0  0  0  0  0  0
    0.6417   -0.4625    0.0000 C   0  0  0  0  0  0  0  0  0  0  0  0
    0.0000   -0.0875    0.0000 C   0  0  0  0  0  0  0  0  0  0  0  0
    1.3000    0.6708    0.0000 C   0  0  0  0  0  0  0  0  0  0  0  0
    4.5542   -1.2125    0.0000 C   0  0  0  0  0  0  0  0  0  0  0  0
    3.2542   -0.4625    0.0000 C   0  0  0  0  0  0  0  0  0  0  0  0
    0.0000    0.6708    0.0000 C   0  0  0  0  0  0  0  0  0  0  0  0
    3.9042   -1.5875    0.0000 C   0  0  0  0  0  0  0  0  0  0  0  0
    4.5542   -0.4625    0.0000 C   0  0  0  0  0  0  0  0  0  0  0  0
    2.6042    0.6708    0.0000 C   0  0  0  0  0  0  0  0  0  0  0  0
    1.9542    1.0458    0.0000 O   0  0  0  0  0  0  0  0  0  0  0  0
    0.6417    1.0458    0.0000 C   0  0  0  0  0  0  0  0  0  0  0  0
    3.2542   -1.2125    0.0000 C   0  0  0  0  0  0  0  0  0  0  0  0
    3.9042   -0.0875    0.0000 C   0  0  0  0  0  0  0  0  0  0  0  0
    0.6417   -1.2125    0.0000 O   0  0  0  0  0  0  0  0  0  0  0  0
   -0.6500   -0.4625    0.0000 O   0  0  0  0  0  0  0  0  0  0  0  0
    5.2042   -1.5875    0.0000 O   0  0  0  0  0  0  0  0  0  0  0  0
   -0.6583    1.0458    0.0000 O   0  0  0  0  0  0  0  0  0  0  0  0
    3.9042   -2.3375    0.0000 O   0  0  0  0  0  0  0  0  0  0  0  0
    5.2042   -0.0875    0.0000 O   0  0  0  0  0  0  0  0  0  0  0  0
   -0.0083   -1.5792    0.0000 C   0  0  0  0  0  0  0  0  0  0  0  0
   -1.3000   -0.0875    0.0000 C   0  0  0  0  0  0  0  0  0  0  0  0
    5.2042   -2.3375    0.0000 C   0  0  0  0  0  0  0  0  0  0  0  0
    3.2542   -2.7125    0.0000 C   0  0  0  0  0  0  0  0  0  0  0  0
    5.8542   -0.4625    0.0000 C   0  0  0  0  0  0  0  0  0  0  0  0
   -0.6583    1.7958    0.0000 C   0  0  0  0  0  0  0  0  0  0  0  0
    1.9542   -1.2125    0.0000 O   0  0  0  0  0  0  0  0  0  0  0  0
   -0.0083    2.1708    0.0000 O   0  0  0  0  0  0  0  0  0  0  0  0
   -1.3000    0.6625    0.0000 O   0  0  0  0  0  0  0  0  0  0  0  0
   -0.6583   -1.2042    0.0000 O   0  0  0  0  0  0  0  0  0  0  0  0
    5.8542   -1.2125    0.0000 O   0  0  0  0  0  0  0  0  0  0  0  0
    4.5542   -2.7125    0.0000 O   0  0  0  0  0  0  0  0  0  0  0  0
    2.6042   -2.3375    0.0000 O   0  0  0  0  0  0  0  0  0  0  0  0
   -1.3083    2.1708    0.0000 C   0  0  0  0  0  0  0  0  0  0  0  0
   -0.0083   -2.3292    0.0000 C   0  0  0  0  0  0  0  0  0  0  0  0
    3.2542   -3.4625    0.0000 C   0  0  0  0  0  0  0  0  0  0  0  0
    6.5042   -0.0875    0.0000 C   0  0  0  0  0  0  0  0  0  0  0  0
   -1.9500   -0.4625    0.0000 C   0  0  0  0  0  0  0  0  0  0  0  0
    5.8542   -2.7125    0.0000 C   0  0  0  0  0  0  0  0  0  0  0  0
  2  1  1  0
  3  2  1  0
  4  1  2  0
  5  4  1  0
  6  1  1  0
  7 11  2  0
  8  3  1  0
  9 14  1  0
 10 15  2  0
 11 16  1  0
 12 13  1  0
 13  6  1  0
 14  6  2  0
 15  8  1  0
 16  8  2  0
 17  4  1  0
 18  5  1  0
 19  7  1  0
 20  9  1  0
 21 10  1  0
 22 11  1  0
 23 17  1  0
 24 18  1  0
 25 19  1  0
 26 21  1  0
 27 22  1  0
 28 20  1  0
 29  2  2  0
 30 28  2  0
 31 24  2  0
 32 23  2  0
 33 27  2  0
 34 25  2  0
 35 26  2  0
 36 28  1  0
 37 23  1  0
 38 26  1  0
 39 27  1  0
 40 24  1  0
 41 25  1  0
  9  5  2  0
  3 12  2  0
 10  7  1  0
M  END
>  <ID>  (1847) 


>  <MOLENAME>  (1847) 
IRIGINOL HEXAACETATE

>  <therap>  (1847) 
nan

>  <ref>  (1847) 
nan

>  <cas#>  (1847) 
nan

>  <source>  (1847) 
semisynthetic

>  <status>  (1847) 
undetermined activity

>  <tradename>  (1847) 
nan

>  <SMILES>  (1847) 
CC(=O)Oc1cc(-c2coc3cc(OC(C)=O)c(OC(C)=O)c(OC(C)=O)c3c2=O)cc(OC(C)=O)c1OC(C)=O

>  <standardized_failed>  (1847) 
False

$$$$

     RDKit          2D

 61 68  0  0  0  0  0  0  0  0999 V2000
    5.7792   -3.2792    0.0000 C   0  0  0  0  0  0  0  0  0  0  0  0
    4.4167   -4.8917    0.0000 C   0  0  0  0  0  0  0  0  0  0  0  0
    6.4667   -3.6792    0.0000 C   0  0  0  0  0  0  0  0  0  0  0  0
    5.1000   -3.6792    0.0000 C   0  0  0  0  0  0  0  0  0  0  0  0
    4.4125   -4.1292    0.0000 C   0  0  0  0  0  0  0  0  0  0  0  0
    7.8500   -3.6792    0.0000 C   0  0  0  0  0  0  0  0  0  0  0  0
    7.1625   -2.4792    0.0000 C   0  0  0  0  0  0  0  0  0  0  0  0
    7.1625   -3.2792    0.0000 C   0  0  0  0  0  0  0  0  0  0  0  0
    5.2625   -4.9042    0.0000 C   0  0  0  0  0  0  0  0  0  0  0  0
    3.7125   -3.2792    0.0000 C   0  0  0  0  0  0  0  0  0  0  0  0
    3.7125   -4.4792    0.0000 C   0  0  0  0  0  0  0  0  0  0  0  0
    8.5500   -3.2792    0.0000 C   0  0  0  0  0  0  0  0  0  0  0  0
    5.9125   -5.1042    0.0000 C   0  0  0  0  0  0  0  0  0  0  0  0
    5.7792   -2.4792    0.0000 C   0  0  0  0  0  0  0  0  0  0  0  0
    7.8500   -2.0792    0.0000 C   0  0  0  0  0  0  0  0  0  0  0  0
    4.4167   -3.2792    0.0000 C   0  0  0  0  0  0  0  0  0  0  0  0
    6.4667   -2.0792    0.0000 C   0  0  0  0  0  0  0  0  0  0  0  0
    8.5500   -2.4792    0.0000 O   0  0  0  0  0  0  0  0  0  0  0  0
    6.0500   -4.5417    0.0000 O   0  0  0  0  0  0  0  0  0  0  0  0
    6.4625   -4.7542    0.0000 O   0  0  0  0  0  0  0  0  0  0  0  0
    5.1000   -4.1292    0.0000 O   0  0  0  0  0  0  0  0  0  0  0  0
    3.9917   -4.1292    0.0000 C   0  0  0  0  0  0  0  0  0  0  0  0
    7.8500   -4.3667    0.0000 C   0  0  0  0  0  0  0  0  0  0  0  0
    3.0792   -4.8167    0.0000 O   0  0  0  0  0  0  0  0  0  0  0  0
    7.8417   -1.2542    0.0000 C   0  0  0  0  0  0  0  0  0  0  0  0
    3.0792   -5.6167    0.0000 C   0  0  0  0  0  0  0  0  0  0  0  0
    5.0125   -5.6292    0.0000 O   0  0  0  0  0  0  0  0  0  0  0  0
    5.0667   -2.1167    0.0000 O   0  0  0  0  0  0  0  0  0  0  0  0
    6.4667   -1.2792    0.0000 O   0  0  0  0  0  0  0  0  0  0  0  0
    4.4167   -2.4792    0.0000 C   0  0  0  0  0  0  0  0  0  0  0  0
    5.0667   -1.3417    0.0000 C   0  0  0  0  0  0  0  0  0  0  0  0
    5.5500   -6.1792    0.0000 C   0  0  0  0  0  0  0  0  0  0  0  0
    9.2625   -3.6792    0.0000 O   0  0  0  0  0  0  0  0  0  0  0  0
    6.2125   -0.4875    0.0000 C   0  0  0  0  0  0  0  0  0  0  0  0
    3.7292   -2.0792    0.0000 C   0  0  0  0  0  0  0  0  0  0  0  0
    4.1625   -5.5292    0.0000 O   0  0  0  0  0  0  0  0  0  0  0  0
    8.4542   -0.7667    0.0000 C   0  0  0  0  0  0  0  0  0  0  0  0
    7.1750   -0.7542    0.0000 C   0  0  0  0  0  0  0  0  0  0  0  0
    8.2292   -0.0000    0.0000 O   0  0  0  0  0  0  0  0  0  0  0  0
    3.7417   -6.0042    0.0000 O   0  0  0  0  0  0  0  0  0  0  0  0
    7.4292   -0.0042    0.0000 C   0  0  0  0  0  0  0  0  0  0  0  0
    5.3167   -6.9292    0.0000 O   0  0  0  0  0  0  0  0  0  0  0  0
    4.3792   -0.9792    0.0000 O   0  0  0  0  0  0  0  0  0  0  0  0
    6.6667    0.0958    0.0000 O   0  0  0  0  0  0  0  0  0  0  0  0
    3.7292   -1.2792    0.0000 O   0  0  0  0  0  0  0  0  0  0  0  0
    7.3292   -4.6417    0.0000 C   0  0  0  0  0  0  0  0  0  0  0  0
    5.1000   -2.9417    0.0000 C   0  0  0  0  0  0  0  0  0  0  0  0
    7.1625   -1.6792    0.0000 C   0  0  0  0  0  0  0  0  0  0  0  0
    8.4125   -4.6667    0.0000 O   0  0  0  0  0  0  0  0  0  0  0  0
    2.3667   -5.9792    0.0000 C   0  0  0  0  0  0  0  0  0  0  0  0
    3.1000   -3.2792    0.0000 C   0  0  0  0  0  0  0  0  0  0  0  0
    5.9125   -5.6667    0.0000 C   0  0  0  0  0  0  0  0  0  0  0  0
    3.0500   -2.4792    0.0000 O   0  0  0  0  0  0  0  0  0  0  0  0
    6.3792   -6.1792    0.0000 C   0  0  0  0  0  0  0  0  0  0  0  0
    5.3292   -0.2500    0.0000 C   0  0  0  0  0  0  0  0  0  0  0  0
    5.7792   -0.8917    0.0000 C   0  0  0  0  0  0  0  0  0  0  0  0
    7.0000   -4.1917    0.0000 C   0  0  0  0  0  0  0  0  0  0  0  0
    7.3417   -5.3292    0.0000 C   0  0  0  0  0  0  0  0  0  0  0  0
    2.3792   -6.7292    0.0000 C   0  0  0  0  0  0  0  0  0  0  0  0
    1.6917   -5.5292    0.0000 C   0  0  0  0  0  0  0  0  0  0  0  0
    2.4167   -2.1167    0.0000 C   0  0  0  0  0  0  0  0  0  0  0  0
  2  5  1  0
  3  1  1  0
  4  1  1  0
  4  5  1  0
  6  8  1  0
  7 17  1  0
  8  3  1  0
  9  3  1  0
 10 16  1  0
 11 10  1  0
 12  6  1  0
 13 19  1  0
 14  1  1  0
 15  7  1  0
 16  4  1  0
 17 14  1  0
 15 18  1  6
  1 19  1  6
  3 20  1  6
 21 13  1  0
 22  5  1  0
 23  6  2  0
 24 11  1  0
 15 25  1  0
 26 24  1  0
  9 27  1  6
 14 28  1  6
 29 17  1  0
 16 30  1  6
 31 28  1  0
 32 27  1  0
 33 12  2  0
 34 29  1  0
 35 30  1  0
  2 36  1  6
 37 25  2  0
 38 25  1  0
 39 37  1  0
 40 26  2  0
 41 38  2  0
 42 32  2  0
 43 31  2  0
 44 34  2  0
 45 35  2  0
 46 23  1  0
  4 47  1  6
  7 48  1  6
 49 23  1  0
 50 26  1  0
 51 10  1  0
 52 13  1  0
 53 35  1  0
 54 32  1  0
 55 34  1  0
 56 31  1  0
 57 46  1  0
 58 46  1  0
 59 50  1  0
 60 50  1  0
 61 53  1  0
 20 13  1  0
  2  9  1  0
  7  8  1  0
  5 21  1  0
 10 22  1  0
 11  2  1  0
 18 12  1  0
 41 39  1  0
M  END
>  <ID>  (1848) 


>  <MOLENAME>  (1848) 
BUSSEIN

>  <therap>  (1848) 
nan

>  <ref>  (1848) 
Chem Commun 1965:302

>  <cas#>  (1848) 
41060-14-4

>  <source>  (1848) 
Entandrophragma species

>  <status>  (1848) 
undetermined activity

>  <tradename>  (1848) 
nan

>  <SMILES>  (1848) 
COC(=O)C[C@H]1C2(C)CC34OC5(C)O[C@]6(C7/C(=C(/O)C(C)C)C(=O)O[C@@H](c8cocc8)[C@]7(C)C(OC(C)=O)[C@@H](OC(C)=O)[C@]6(O5)[C@]13C)[C@H](OC(C)=O)[C@@]4(O)C2OC(=O)C(C)C

>  <standardized_failed>  (1848) 
False

$$$$

     RDKit          2D

 49 48  0  0  0  0  0  0  0  0999 V2000
    6.9167   -0.6750    0.0000 C   0  0  0  0  0  0  0  0  0  0  0  0
    6.9167    0.1500    0.0000 O   0  0  0  0  0  0  0  0  0  0  0  0
    4.0667   -0.6792    0.0000 C   0  0  0  0  0  0  0  0  0  0  0  0
   -1.6333   -3.1417    0.0000 C   0  0  0  0  0  0  0  0  0  0  0  0
    0.5042   -4.3667    0.0000 C   0  0  0  0  0  0  0  0  0  0  0  0
    3.3542   -4.3625    0.0000 C   0  0  0  0  0  0  0  0  0  0  0  0
    6.2042   -4.3542    0.0000 C   0  0  0  0  0  0  0  0  0  0  0  0
    9.0542   -4.3417    0.0000 C   0  0  0  0  0  0  0  0  0  0  0  0
   -1.6333   -0.6792    0.0000 C   0  0  0  0  0  0  0  0  0  0  0  0
    1.2167   -0.6792    0.0000 C   0  0  0  0  0  0  0  0  0  0  0  0
   11.9042   -4.3375    0.0000 C   0  0  0  0  0  0  0  0  0  0  0  0
    4.7792   -1.0917    0.0000 C   0  0  0  0  0  0  0  0  0  0  0  0
   11.1917   -4.7500    0.0000 C   0  0  0  0  0  0  0  0  0  0  0  0
   -0.9208   -1.0917    0.0000 C   0  0  0  0  0  0  0  0  0  0  0  0
    8.3417   -4.7542    0.0000 C   0  0  0  0  0  0  0  0  0  0  0  0
   -0.2083   -4.7792    0.0000 C   0  0  0  0  0  0  0  0  0  0  0  0
    1.9292   -1.0917    0.0000 C   0  0  0  0  0  0  0  0  0  0  0  0
    2.6417   -4.7750    0.0000 C   0  0  0  0  0  0  0  0  0  0  0  0
   -1.6333   -2.3167    0.0000 C   0  0  0  0  0  0  0  0  0  0  0  0
    5.4917   -4.7667    0.0000 C   0  0  0  0  0  0  0  0  0  0  0  0
    6.2042   -1.0875    0.0000 O   0  0  0  0  0  0  0  0  0  0  0  0
    5.4917   -0.6792    0.0000 C   0  0  0  0  0  0  0  0  0  0  0  0
    1.9292   -4.3667    0.0000 C   0  0  0  0  0  0  0  0  0  0  0  0
   -0.2083   -0.6792    0.0000 C   0  0  0  0  0  0  0  0  0  0  0  0
   -0.9208   -4.3667    0.0000 C   0  0  0  0  0  0  0  0  0  0  0  0
   10.4792   -4.3417    0.0000 C   0  0  0  0  0  0  0  0  0  0  0  0
    4.7792   -4.3542    0.0000 C   0  0  0  0  0  0  0  0  0  0  0  0
   -2.3458   -1.9125    0.0000 C   0  0  0  0  0  0  0  0  0  0  0  0
    2.6417   -0.6792    0.0000 C   0  0  0  0  0  0  0  0  0  0  0  0
    7.6292   -4.3500    0.0000 C   0  0  0  0  0  0  0  0  0  0  0  0
    4.0667   -4.7667    0.0000 C   0  0  0  0  0  0  0  0  0  0  0  0
    3.3542   -1.0917    0.0000 C   0  0  0  0  0  0  0  0  0  0  0  0
    9.7667   -4.7542    0.0000 C   0  0  0  0  0  0  0  0  0  0  0  0
    1.2167   -4.7792    0.0000 C   0  0  0  0  0  0  0  0  0  0  0  0
   -0.9208   -3.5500    0.0000 C   0  0  0  0  0  0  0  0  0  0  0  0
    6.9167   -4.7625    0.0000 C   0  0  0  0  0  0  0  0  0  0  0  0
    0.5042   -1.0917    0.0000 C   0  0  0  0  0  0  0  0  0  0  0  0
   -2.3458   -1.0917    0.0000 C   0  0  0  0  0  0  0  0  0  0  0  0
    7.6292   -1.0875    0.0000 C   0  0  0  0  0  0  0  0  0  0  0  0
   11.9042   -3.5125    0.0000 C   0  0  0  0  0  0  0  0  0  0  0  0
   12.6167   -4.7500    0.0000 C   0  0  0  0  0  0  0  0  0  0  0  0
    9.0500   -3.5167    0.0000 C   0  0  0  0  0  0  0  0  0  0  0  0
    4.0667    0.1458    0.0000 C   0  0  0  0  0  0  0  0  0  0  0  0
    1.2167    0.1458    0.0000 C   0  0  0  0  0  0  0  0  0  0  0  0
   -1.6333    0.1458    0.0000 C   0  0  0  0  0  0  0  0  0  0  0  0
   -2.3500   -3.5542    0.0000 C   0  0  0  0  0  0  0  0  0  0  0  0
    3.3500   -3.5375    0.0000 C   0  0  0  0  0  0  0  0  0  0  0  0
    6.2000   -3.5292    0.0000 C   0  0  0  0  0  0  0  0  0  0  0  0
    0.5042   -3.5417    0.0000 C   0  0  0  0  0  0  0  0  0  0  0  0
  2  1  2  0
  3 12  2  0
  4 19  2  0
  5 16  2  0
  6 18  2  0
  7 20  2  0
  8 15  2  0
  9 14  2  0
 10 17  2  0
 11 13  2  0
 12 22  1  0
 13 26  1  0
 14 24  1  0
 15 30  1  0
 16 25  1  0
 17 29  1  0
 18 23  1  0
 19 28  1  0
 20 27  1  0
 21  1  1  0
 22 21  1  0
 23 34  1  0
 24 37  1  0
 25 35  1  0
 26 33  1  0
 27 31  1  0
 28 38  1  0
 29 32  1  0
 30 36  1  0
 31  6  1  0
 32  3  1  0
 33  8  1  0
 34  5  1  0
 35  4  1  0
 36  7  1  0
 37 10  1  0
 38  9  1  0
 39  1  1  0
 40 11  1  0
 41 11  1  0
 42  8  1  0
 43  3  1  0
 44 10  1  0
 45  9  1  0
 46  4  1  0
 47  6  1  0
 48  7  1  0
 49  5  1  0
M  END
>  <ID>  (1849) 


>  <MOLENAME>  (1849) 
SOLANESYL ACETATE

>  <therap>  (1849) 
nan

>  <ref>  (1849) 
Phytochemistry 39:1383 (1995)

>  <cas#>  (1849) 
nan

>  <source>  (1849) 
Nicotiana tabacum; Murraya exotica; Pinus spp

>  <status>  (1849) 
undetermined activity

>  <tradename>  (1849) 
nan

>  <SMILES>  (1849) 
CC(=O)OC/C=C(\C)CC/C=C(\C)CC/C=C(\C)CC/C=C(\C)CC/C=C(\C)CC/C=C(\C)CC/C=C(\C)CC/C=C(\C)CCC=C(C)C

>  <standardized_failed>  (1849) 
False

$$$$

     RDKit          2D

 33 36  0  0  0  0  0  0  0  0999 V2000
    3.4667   -0.5667    0.0000 C   0  0  0  0  0  0  0  0  0  0  0  0
    1.3292   -1.8042    0.0000 C   0  0  0  0  0  0  0  0  0  0  0  0
    1.3292   -2.6292    0.0000 C   0  0  0  0  0  0  0  0  0  0  0  0
    3.4667   -1.3917    0.0000 C   0  0  0  0  0  0  0  0  0  0  0  0
    2.0417   -1.3917    0.0000 C   0  0  0  0  0  0  0  0  0  0  0  0
    2.7542   -1.8042    0.0000 C   0  0  0  0  0  0  0  0  0  0  0  0
    4.2542   -0.3042    0.0000 C   0  0  0  0  0  0  0  0  0  0  0  0
    2.0417   -3.0417    0.0000 C   0  0  0  0  0  0  0  0  0  0  0  0
    2.7542   -0.1542    0.0000 C   0  0  0  0  0  0  0  0  0  0  0  0
    2.7542   -2.6292    0.0000 C   0  0  0  0  0  0  0  0  0  0  0  0
    2.0417   -0.5667    0.0000 C   0  0  0  0  0  0  0  0  0  0  0  0
    4.2542   -1.6417    0.0000 C   0  0  0  0  0  0  0  0  0  0  0  0
    0.6167   -1.3917    0.0000 C   0  0  0  0  0  0  0  0  0  0  0  0
    4.7417   -0.9792    0.0000 C   0  0  0  0  0  0  0  0  0  0  0  0
    0.6167   -3.0417    0.0000 C   0  0  0  0  0  0  0  0  0  0  0  0
   -1.5458   -2.6417    0.0000 C   0  0  0  0  0  0  0  0  0  0  0  0
   -0.8333   -3.0542    0.0000 O   0  0  0  0  0  0  0  0  0  0  0  0
   -0.1083   -2.6292    0.0000 C   0  0  0  0  0  0  0  0  0  0  0  0
   -1.5458   -1.8167    0.0000 O   0  0  0  0  0  0  0  0  0  0  0  0
    4.5042    0.4833    0.0000 C   0  0  0  0  0  0  0  0  0  0  0  0
    5.3167    0.6583    0.0000 C   0  0  0  0  0  0  0  0  0  0  0  0
    5.5667    1.4458    0.0000 C   0  0  0  0  0  0  0  0  0  0  0  0
   -0.1083   -1.8042    0.0000 C   0  0  0  0  0  0  0  0  0  0  0  0
    3.4667    0.2583    0.0000 C   0  0  0  0  0  0  0  0  0  0  0  0
    6.3667    1.6208    0.0000 C   0  0  0  0  0  0  0  0  0  0  0  0
    1.3167   -1.0542    0.0000 C   0  0  0  0  0  0  0  0  0  0  0  0
    6.6292    2.4083    0.0000 C   0  0  0  0  0  0  0  0  0  0  0  0
   -2.2583   -3.0542    0.0000 C   0  0  0  0  0  0  0  0  0  0  0  0
    6.9292    1.0083    0.0000 C   0  0  0  0  0  0  0  0  0  0  0  0
    3.9542    1.0958    0.0000 C   0  0  0  0  0  0  0  0  0  0  0  0
    7.4292    2.5833    0.0000 C   0  0  0  0  0  0  0  0  0  0  0  0
    6.0667    3.0208    0.0000 C   0  0  0  0  0  0  0  0  0  0  0  0
    6.6667    0.2208    0.0000 C   0  0  0  0  0  0  0  0  0  0  0  0
  2  5  1  0
  3  2  1  0
  4  1  1  0
  5 11  1  0
  6  4  1  0
  7  1  1  0
  8 10  1  0
  9  1  1  0
 10  6  1  0
 11  9  1  0
 12  4  1  0
 13  2  1  0
 14  7  1  0
 15  3  1  0
 16 17  1  0
 18 17  1  1
 18 23  1  0
 19 16  2  0
  7 20  1  1
 21 20  1  0
 22 21  1  0
 23 13  1  0
  1 24  1  1
 25 22  1  0
  2 26  1  1
 27 25  1  0
 28 16  1  0
 29 25  1  0
 30 20  1  0
 31 27  1  0
 32 27  1  0
 33 29  1  0
 14 12  1  0
  5  6  1  0
  8  3  2  0
 18 15  1  0
M  END
>  <ID>  (1850) 


>  <MOLENAME>  (1850) 
SITOSTERYL ACETATE

>  <therap>  (1850) 
nan

>  <ref>  (1850) 
J Am Chem Soc 48: 2987 (1926)

>  <cas#>  (1850) 
nan

>  <source>  (1850) 
widespread in plants

>  <status>  (1850) 
undetermined activity

>  <tradename>  (1850) 
nan

>  <SMILES>  (1850) 
CCC(CCC(C)[C@H]1CCC2C3CC=C4C[C@@H](OC(C)=O)CC[C@]4(C)C3CC[C@@]21C)C(C)C

>  <standardized_failed>  (1850) 
False

$$$$

     RDKit          2D

 18 20  0  0  0  0  0  0  0  0999 V2000
    0.4250   -2.3542    0.0000 C   0  0  0  0  0  0  0  0  0  0  0  0
   -0.2958   -1.9417    0.0000 C   0  0  0  0  0  0  0  0  0  0  0  0
    1.1375   -1.9417    0.0000 C   0  0  0  0  0  0  0  0  0  0  0  0
    1.1292   -1.1125    0.0000 C   0  0  0  0  0  0  0  0  0  0  0  0
    0.4167   -0.7042    0.0000 O   0  0  0  0  0  0  0  0  0  0  0  0
   -0.2958   -1.1167    0.0000 C   0  0  0  0  0  0  0  0  0  0  0  0
   -1.0083   -2.3625    0.0000 C   0  0  0  0  0  0  0  0  0  0  0  0
    0.4250   -3.1792    0.0000 O   0  0  0  0  0  0  0  0  0  0  0  0
    1.8417   -0.6917    0.0000 C   0  0  0  0  0  0  0  0  0  0  0  0
   -1.0083   -0.7042    0.0000 C   0  0  0  0  0  0  0  0  0  0  0  0
   -1.0083   -3.1875    0.0000 O   0  0  0  0  0  0  0  0  0  0  0  0
   -1.7208   -1.1250    0.0000 C   0  0  0  0  0  0  0  0  0  0  0  0
   -1.7208   -1.9500    0.0000 C   0  0  0  0  0  0  0  0  0  0  0  0
    2.5542   -1.1042    0.0000 C   0  0  0  0  0  0  0  0  0  0  0  0
    1.8375    0.1250    0.0000 C   0  0  0  0  0  0  0  0  0  0  0  0
    2.5417    0.5458    0.0000 C   0  0  0  0  0  0  0  0  0  0  0  0
    3.2667   -0.6917    0.0000 C   0  0  0  0  0  0  0  0  0  0  0  0
    3.2667    0.1333    0.0000 C   0  0  0  0  0  0  0  0  0  0  0  0
  2  1  1  0
  3  1  1  0
  4  3  2  0
  5  4  1  0
  6  2  2  0
  7  2  1  0
  8  1  2  0
  9  4  1  0
 10  6  1  0
 11  7  1  0
 12 13  1  0
 13  7  2  0
 14  9  2  0
 15  9  1  0
 16 15  2  0
 17 14  1  0
 18 16  1  0
  6  5  1  0
 12 10  2  0
 18 17  2  0
M  END
>  <ID>  (1851) 


>  <MOLENAME>  (1851) 
PRIMULETIN

>  <therap>  (1851) 
nan

>  <ref>  (1851) 
Helv Chim Acta 24:297 (1941)

>  <cas#>  (1851) 
491-78-1

>  <source>  (1851) 
Primula spp

>  <status>  (1851) 
undetermined activity

>  <tradename>  (1851) 
nan

>  <SMILES>  (1851) 
O=c1cc(-c2ccccc2)oc2c1c(O)ccc2

>  <standardized_failed>  (1851) 
False

$$$$

     RDKit          2D

 37 41  0  0  0  0  0  0  0  0999 V2000
    1.8292   -0.6292    0.0000 C   0  0  0  0  0  0  0  0  0  0  0  0
    1.8292   -1.4917    0.0000 C   0  0  0  0  0  0  0  0  0  0  0  0
    1.0667   -1.9417    0.0000 C   0  0  0  0  0  0  0  0  0  0  0  0
    4.0792    0.6833    0.0000 C   0  0  0  0  0  0  0  0  0  0  0  0
    2.5792   -0.1792    0.0000 C   0  0  0  0  0  0  0  0  0  0  0  0
    1.0667   -0.1792    0.0000 C   0  0  0  0  0  0  0  0  0  0  0  0
    3.3167   -0.6292    0.0000 C   0  0  0  0  0  0  0  0  0  0  0  0
    0.3292   -1.4917    0.0000 C   0  0  0  0  0  0  0  0  0  0  0  0
    4.0792   -0.1792    0.0000 C   0  0  0  0  0  0  0  0  0  0  0  0
    0.3292   -0.6292    0.0000 C   0  0  0  0  0  0  0  0  0  0  0  0
    4.8292    1.1333    0.0000 C   0  0  0  0  0  0  0  0  0  0  0  0
    3.3167   -2.3167    0.0000 C   0  0  0  0  0  0  0  0  0  0  0  0
    5.5917    0.6833    0.0000 O   0  0  0  0  0  0  0  0  0  0  0  0
    4.8250    1.9583    0.0000 C   0  0  0  0  0  0  0  0  0  0  0  0
    5.5917   -0.1792    0.0000 C   0  0  0  0  0  0  0  0  0  0  0  0
    3.3167    1.1333    0.0000 C   0  0  0  0  0  0  0  0  0  0  0  0
    2.5792    0.6833    0.0000 C   0  0  0  0  0  0  0  0  0  0  0  0
   -0.3958   -1.8667    0.0000 O   0  0  0  0  0  0  0  0  0  0  0  0
    4.8292   -0.6292    0.0000 C   0  0  0  0  0  0  0  0  0  0  0  0
    1.0667    0.6833    0.0000 C   0  0  0  0  0  0  0  0  0  0  0  0
   -0.4083   -2.7667    0.0000 C   0  0  0  0  0  0  0  0  0  0  0  0
    0.3292    1.1333    0.0000 C   0  0  0  0  0  0  0  0  0  0  0  0
    2.4792   -1.8917    0.0000 O   0  0  0  0  0  0  0  0  0  0  0  0
    5.3917    2.5833    0.0000 C   0  0  0  0  0  0  0  0  0  0  0  0
    4.0042    2.3708    0.0000 C   0  0  0  0  0  0  0  0  0  0  0  0
    4.9917    3.3708    0.0000 O   0  0  0  0  0  0  0  0  0  0  0  0
    6.3542   -0.6292    0.0000 O   0  0  0  0  0  0  0  0  0  0  0  0
    4.1417    3.2083    0.0000 C   0  0  0  0  0  0  0  0  0  0  0  0
   -1.1708   -3.2667    0.0000 O   0  0  0  0  0  0  0  0  0  0  0  0
    0.3292    1.9833    0.0000 O   0  0  0  0  0  0  0  0  0  0  0  0
    1.1667   -1.0667    0.0000 C   0  0  0  0  0  0  0  0  0  0  0  0
    4.0792    1.5708    0.0000 C   0  0  0  0  0  0  0  0  0  0  0  0
    0.3292    0.2083    0.0000 C   0  0  0  0  0  0  0  0  0  0  0  0
   -0.3208   -1.0542    0.0000 C   0  0  0  0  0  0  0  0  0  0  0  0
   -0.4083    0.6833    0.0000 O   0  0  0  0  0  0  0  0  0  0  0  0
    0.3917   -3.2167    0.0000 C   0  0  0  0  0  0  0  0  0  0  0  0
   -1.0958    1.0958    0.0000 C   0  0  0  0  0  0  0  0  0  0  0  0
  1  2  1  0
  3  2  1  0
  4 16  1  0
  5  1  1  0
  6  1  1  0
  7  5  1  0
  8 10  1  0
  9  7  1  0
 10  6  1  0
 11  4  1  0
 12  7  1  0
 11 13  1  6
 11 14  1  0
 15 19  1  0
 16 17  1  0
 17  5  1  0
  8 18  1  6
 19  9  1  0
  6 20  1  6
 21 18  1  0
 22 20  1  0
 23  2  2  0
 24 14  2  0
 25 14  1  0
 26 24  1  0
 27 15  2  0
 28 25  2  0
 29 21  2  0
 30 22  2  0
  1 31  1  1
  4 32  1  6
 33 10  1  0
 34 10  1  0
 35 22  1  0
 36 21  1  0
 37 35  1  0
  8  3  1  0
  3 12  1  1
  4  9  1  0
 13 15  1  0
 28 26  1  0
M  END
>  <ID>  (1852) 


>  <MOLENAME>  (1852) 
DIHYDROFISSINOLIDE

>  <therap>  (1852) 
nan

>  <ref>  (1852) 
nan

>  <cas#>  (1852) 
nan

>  <source>  (1852) 
derivative of fissinolide (00100031)

>  <status>  (1852) 
undetermined activity

>  <tradename>  (1852) 
nan

>  <SMILES>  (1852) 
COC(=O)C[C@H]1C(C)(C)[C@@H](OC(C)=O)[C@@H]2CC3C(CC[C@]4(C)C3CC(=O)O[C@H]4c3cocc3)[C@]1(C)C2=O

>  <standardized_failed>  (1852) 
False

$$$$

     RDKit          2D

 29 32  0  0  0  0  0  0  0  0999 V2000
    4.8792   -4.3375    0.0000 C   0  0  0  0  0  0  0  0  0  0  0  0
    5.6125   -3.1042    0.0000 C   0  0  0  0  0  0  0  0  0  0  0  0
    3.4625   -4.3167    0.0000 C   0  0  0  0  0  0  0  0  0  0  0  0
    5.6042   -3.9292    0.0000 C   0  0  0  0  0  0  0  0  0  0  0  0
    4.1750   -3.9167    0.0000 C   0  0  0  0  0  0  0  0  0  0  0  0
    3.4542   -5.1500    0.0000 C   0  0  0  0  0  0  0  0  0  0  0  0
    4.8875   -5.1542    0.0000 C   0  0  0  0  0  0  0  0  0  0  0  0
    6.3917   -2.8625    0.0000 C   0  0  0  0  0  0  0  0  0  0  0  0
    4.1667   -5.5667    0.0000 C   0  0  0  0  0  0  0  0  0  0  0  0
    4.9042   -2.6875    0.0000 C   0  0  0  0  0  0  0  0  0  0  0  0
    4.1792   -3.0917    0.0000 C   0  0  0  0  0  0  0  0  0  0  0  0
    6.3792   -4.1917    0.0000 C   0  0  0  0  0  0  0  0  0  0  0  0
    7.4667   -1.9167    0.0000 C   0  0  0  0  0  0  0  0  0  0  0  0
    8.0125   -2.5375    0.0000 C   0  0  0  0  0  0  0  0  0  0  0  0
    2.7500   -3.9125    0.0000 C   0  0  0  0  0  0  0  0  0  0  0  0
    6.8667   -3.5292    0.0000 C   0  0  0  0  0  0  0  0  0  0  0  0
    2.7500   -5.5625    0.0000 C   0  0  0  0  0  0  0  0  0  0  0  0
    6.6542   -2.0792    0.0000 C   0  0  0  0  0  0  0  0  0  0  0  0
    8.8167   -2.3750    0.0000 C   0  0  0  0  0  0  0  0  0  0  0  0
    5.6042   -2.2792    0.0000 C   0  0  0  0  0  0  0  0  0  0  0  0
    2.0375   -4.3167    0.0000 C   0  0  0  0  0  0  0  0  0  0  0  0
    2.0375   -5.1500    0.0000 C   0  0  0  0  0  0  0  0  0  0  0  0
    3.4542   -3.5000    0.0000 C   0  0  0  0  0  0  0  0  0  0  0  0
    9.3667   -2.9917    0.0000 C   0  0  0  0  0  0  0  0  0  0  0  0
    1.3250   -5.5667    0.0000 O   0  0  0  0  0  0  0  0  0  0  0  0
    6.1125   -1.4625    0.0000 C   0  0  0  0  0  0  0  0  0  0  0  0
    9.0875   -1.5917    0.0000 C   0  0  0  0  0  0  0  0  0  0  0  0
   10.1750   -2.8292    0.0000 C   0  0  0  0  0  0  0  0  0  0  0  0
    9.1042   -3.7750    0.0000 C   0  0  0  0  0  0  0  0  0  0  0  0
  2  4  1  0
  3  5  1  0
  4  1  1  0
  5  1  1  0
  6  9  2  0
  7  1  2  0
  8  2  1  0
  9  7  1  0
 10 11  1  0
 11  5  1  0
 12  4  1  0
 13 18  1  0
 14 13  2  0
 15  3  1  0
 16 12  1  0
 17  6  1  0
 18  8  1  0
 19 14  1  0
 20  2  1  0
 21 15  1  0
 22 17  1  0
 23  3  1  0
 24 19  1  0
 25 22  1  0
 26 18  1  0
 27 19  1  0
 28 24  1  0
 29 24  1  0
  3  6  1  0
  2 10  1  0
 16  8  1  0
 21 22  1  0
M  END
>  <ID>  (1853) 


>  <MOLENAME>  (1853) 
ERGOSTEROL

>  <therap>  (1853) 
nan

>  <ref>  (1853) 
J Biol Chem 80: 15 (1928)

>  <cas#>  (1853) 
57-87-4

>  <source>  (1853) 
yeast

>  <status>  (1853) 
undetermined activity

>  <tradename>  (1853) 
nan

>  <SMILES>  (1853) 
CC(C)C(C)/C=C/C(C)C1CCC2C3=CC=C4CC(O)CCC4(C)C3CCC21C

>  <standardized_failed>  (1853) 
False

$$$$

     RDKit          2D

 42 47  0  0  0  0  0  0  0  0999 V2000
    4.7500   -4.0917    0.0000 C   0  0  0  0  0  0  0  0  0  0  0  0
    6.1667   -3.2792    0.0000 C   0  0  0  0  0  0  0  0  0  0  0  0
    4.7500   -3.2792    0.0000 C   0  0  0  0  0  0  0  0  0  0  0  0
    4.0250   -4.5292    0.0000 C   0  0  0  0  0  0  0  0  0  0  0  0
    6.8875   -2.8667    0.0000 C   0  0  0  0  0  0  0  0  0  0  0  0
    5.6000   -4.0417    0.0000 O   0  0  0  0  0  0  0  0  0  0  0  0
    6.8875   -2.0292    0.0000 C   0  0  0  0  0  0  0  0  0  0  0  0
    5.4542   -2.8667    0.0000 C   0  0  0  0  0  0  0  0  0  0  0  0
    6.1667   -4.8667    0.0000 C   0  0  0  0  0  0  0  0  0  0  0  0
    3.3167   -4.0917    0.0000 C   0  0  0  0  0  0  0  0  0  0  0  0
    4.0250   -2.8667    0.0000 C   0  0  0  0  0  0  0  0  0  0  0  0
    3.3167   -3.2792    0.0000 C   0  0  0  0  0  0  0  0  0  0  0  0
    7.6000   -1.6167    0.0000 C   0  0  0  0  0  0  0  0  0  0  0  0
    7.6000   -3.2792    0.0000 C   0  0  0  0  0  0  0  0  0  0  0  0
    8.3250   -2.0292    0.0000 O   0  0  0  0  0  0  0  0  0  0  0  0
    7.5917   -0.7917    0.0000 C   0  0  0  0  0  0  0  0  0  0  0  0
    8.3250   -2.8667    0.0000 C   0  0  0  0  0  0  0  0  0  0  0  0
    6.1667   -1.6167    0.0000 C   0  0  0  0  0  0  0  0  0  0  0  0
    5.4542   -2.0292    0.0000 C   0  0  0  0  0  0  0  0  0  0  0  0
    6.8000   -5.4292    0.0000 O   0  0  0  0  0  0  0  0  0  0  0  0
    2.6375   -4.4542    0.0000 O   0  0  0  0  0  0  0  0  0  0  0  0
    4.0250   -2.0292    0.0000 C   0  0  0  0  0  0  0  0  0  0  0  0
    2.6250   -5.3042    0.0000 C   0  0  0  0  0  0  0  0  0  0  0  0
    6.6167   -6.3292    0.0000 C   0  0  0  0  0  0  0  0  0  0  0  0
    3.3250   -1.6167    0.0000 C   0  0  0  0  0  0  0  0  0  0  0  0
    8.1375   -0.1917    0.0000 C   0  0  0  0  0  0  0  0  0  0  0  0
    4.1750   -3.7042    0.0000 O   0  0  0  0  0  0  0  0  0  0  0  0
    6.8125   -0.4042    0.0000 C   0  0  0  0  0  0  0  0  0  0  0  0
    7.7417    0.5458    0.0000 O   0  0  0  0  0  0  0  0  0  0  0  0
    9.0542   -3.2792    0.0000 O   0  0  0  0  0  0  0  0  0  0  0  0
    6.9417    0.3958    0.0000 C   0  0  0  0  0  0  0  0  0  0  0  0
    5.8000   -6.5917    0.0000 O   0  0  0  0  0  0  0  0  0  0  0  0
    3.3542   -5.7542    0.0000 O   0  0  0  0  0  0  0  0  0  0  0  0
    3.3250   -0.7917    0.0000 O   0  0  0  0  0  0  0  0  0  0  0  0
    4.7542   -2.4417    0.0000 C   0  0  0  0  0  0  0  0  0  0  0  0
    6.8875   -1.1917    0.0000 C   0  0  0  0  0  0  0  0  0  0  0  0
    3.3167   -2.4792    0.0000 C   0  0  0  0  0  0  0  0  0  0  0  0
    2.7042   -3.6792    0.0000 C   0  0  0  0  0  0  0  0  0  0  0  0
    2.6250   -2.0292    0.0000 O   0  0  0  0  0  0  0  0  0  0  0  0
    7.2375   -6.9167    0.0000 C   0  0  0  0  0  0  0  0  0  0  0  0
    1.8750   -5.7167    0.0000 C   0  0  0  0  0  0  0  0  0  0  0  0
    1.9667   -1.6542    0.0000 C   0  0  0  0  0  0  0  0  0  0  0  0
  2  6  1  1
  3  1  1  0
  4  1  1  0
  5  2  1  0
  1  6  1  0
  7  5  1  0
  8  3  1  0
  9  4  1  0
  4 10  1  1
 11  3  1  0
 12 10  1  0
 13  7  1  0
 14  5  2  0
 15 17  1  0
 13 16  1  0
 17 14  1  0
 18 19  1  0
 19  8  1  0
  9 20  1  6
 21 10  1  0
 22 11  1  0
 23 21  1  0
 24 20  1  0
 25 22  1  0
 26 16  2  0
  1 27  1  1
 28 16  1  0
 29 26  1  0
 30 17  2  0
 31 28  2  0
 32 24  2  0
 33 23  2  0
 34 25  2  0
  3 35  1  6
  7 36  1  6
 37 12  1  0
 38 12  1  0
 39 25  1  0
 40 24  1  0
 41 23  1  0
 42 39  1  0
  9  2  1  0
  8  2  1  0
 11 12  1  0
 18  7  1  0
 13 15  1  6
 31 29  1  0
M  END
>  <ID>  (1854) 


>  <MOLENAME>  (1854) 
XYLOCARPUS A

>  <therap>  (1854) 
nan

>  <ref>  (1854) 
Adv Med Phytochemistry 1986: 179

>  <cas#>  (1854) 
nan

>  <source>  (1854) 
Meliaceae spp

>  <status>  (1854) 
undetermined activity

>  <tradename>  (1854) 
nan

>  <SMILES>  (1854) 
COC(=O)CC1C(C)(C)C(OC(C)=O)[C@@H]2[C@@H](OC(C)=O)[C@]34O[C@@]2(O)[C@]1(C)C3CC[C@]1(C)C4=CC(=O)O[C@H]1c1cocc1

>  <standardized_failed>  (1854) 
False

$$$$

     RDKit          2D

 19 20  0  0  0  0  0  0  0  0999 V2000
    4.0000    0.4958    0.0000 C   0  0  0  0  0  0  0  0  0  0  0  0
    3.2875    0.0833    0.0000 C   0  0  0  0  0  0  0  0  0  0  0  0
    4.7125    0.0833    0.0000 C   0  0  0  0  0  0  0  0  0  0  0  0
    4.0000    1.3208    0.0000 C   0  0  0  0  0  0  0  0  0  0  0  0
    2.5667    0.4958    0.0000 C   0  0  0  0  0  0  0  0  0  0  0  0
    5.4292    0.4958    0.0000 C   0  0  0  0  0  0  0  0  0  0  0  0
    4.7125    1.7333    0.0000 O   0  0  0  0  0  0  0  0  0  0  0  0
    2.5667    1.3208    0.0000 C   0  0  0  0  0  0  0  0  0  0  0  0
    3.2875    1.7333    0.0000 C   0  0  0  0  0  0  0  0  0  0  0  0
    5.4292    1.3208    0.0000 C   0  0  0  0  0  0  0  0  0  0  0  0
    1.8500    0.0833    0.0000 C   0  0  0  0  0  0  0  0  0  0  0  0
    1.8417   -0.7417    0.0000 C   0  0  0  0  0  0  0  0  0  0  0  0
    4.7125   -0.7417    0.0000 O   0  0  0  0  0  0  0  0  0  0  0  0
    1.1292   -1.1542    0.0000 C   0  0  0  0  0  0  0  0  0  0  0  0
    3.2875   -0.7417    0.0000 O   0  0  0  0  0  0  0  0  0  0  0  0
    1.8500    1.7375    0.0000 O   0  0  0  0  0  0  0  0  0  0  0  0
    6.1500    1.7375    0.0000 C   0  0  0  0  0  0  0  0  0  0  0  0
    0.4167   -0.7417    0.0000 C   0  0  0  0  0  0  0  0  0  0  0  0
    1.1292   -1.9875    0.0000 C   0  0  0  0  0  0  0  0  0  0  0  0
  2  1  2  0
  3  1  1  0
  4  1  1  0
  5  2  1  0
  6  3  1  0
  7  4  1  0
  8  9  1  0
  9  4  2  0
 10  7  1  0
 11  5  1  0
 12 11  1  0
 13  3  2  0
 14 12  2  0
 15  2  1  0
 16  8  1  0
 17 10  1  0
 18 14  1  0
 19 14  1  0
  5  8  2  0
  6 10  2  0
M  END
>  <ID>  (1855) 


>  <MOLENAME>  (1855) 
PEUCENIN

>  <therap>  (1855) 
nan

>  <ref>  (1855) 
Ber 74:1851 (1941); J Chem Soc (C) 1967:145 

>  <cas#>  (1855) 
578-72-3

>  <source>  (1855) 
Peucedanum ostruthium, Ptaeroxylon obliquum

>  <status>  (1855) 
undetermined activity

>  <tradename>  (1855) 
nan

>  <SMILES>  (1855) 
CC(C)=CCc1c(O)cc2oc(C)cc(=O)c2c1O

>  <standardized_failed>  (1855) 
False

$$$$

     RDKit          2D

 20 21  0  0  0  0  0  0  0  0999 V2000
    0.4792   -1.5875    0.0000 C   0  0  0  0  0  0  0  0  0  0  0  0
    0.4792   -0.4792    0.0000 C   0  0  0  0  0  0  0  0  0  0  0  0
    1.4292   -2.1500    0.0000 C   0  0  0  0  0  0  0  0  0  0  0  0
   -0.4833    0.0625    0.0000 C   0  0  0  0  0  0  0  0  0  0  0  0
   -0.4833   -2.1500    0.0000 C   0  0  0  0  0  0  0  0  0  0  0  0
    2.3792   -1.5875    0.0000 C   0  0  0  0  0  0  0  0  0  0  0  0
    1.4292    0.0625    0.0000 O   0  0  0  0  0  0  0  0  0  0  0  0
   -1.4500   -0.5000    0.0000 C   0  0  0  0  0  0  0  0  0  0  0  0
   -1.4500   -1.5875    0.0000 C   0  0  0  0  0  0  0  0  0  0  0  0
    2.3792   -0.5000    0.0000 C   0  0  0  0  0  0  0  0  0  0  0  0
   -0.4833    1.1708    0.0000 C   0  0  0  0  0  0  0  0  0  0  0  0
    0.4792    1.7125    0.0000 C   0  0  0  0  0  0  0  0  0  0  0  0
    1.4292   -3.2542    0.0000 O   0  0  0  0  0  0  0  0  0  0  0  0
    0.4792    2.8208    0.0000 C   0  0  0  0  0  0  0  0  0  0  0  0
   -0.4833   -3.2542    0.0000 O   0  0  0  0  0  0  0  0  0  0  0  0
   -2.4333    0.0458    0.0000 O   0  0  0  0  0  0  0  0  0  0  0  0
    3.3667    0.0458    0.0000 C   0  0  0  0  0  0  0  0  0  0  0  0
   -0.4833    3.3958    0.0000 C   0  0  0  0  0  0  0  0  0  0  0  0
    1.4375    3.3958    0.0000 C   0  0  0  0  0  0  0  0  0  0  0  0
   -3.3958   -0.5292    0.0000 C   0  0  0  0  0  0  0  0  0  0  0  0
  2  1  2  0
  3  1  1  0
  4  2  1  0
  5  1  1  0
  6  3  1  0
  7  2  1  0
  8  9  1  0
  9  5  2  0
 10  6  2  0
 11  4  1  0
 12 11  1  0
 13  3  2  0
 14 12  2  0
 15  5  1  0
 16  8  1  0
 17 10  1  0
 18 14  1  0
 19 14  1  0
 20 16  1  0
  4  8  2  0
  7 10  1  0
M  END
>  <ID>  (1856) 


>  <MOLENAME>  (1856) 
HETEROPEUCENIN. METHYL ETHER

>  <therap>  (1856) 
nan

>  <ref>  (1856) 
Tetrahedron Letters 1967:2737

>  <cas#>  (1856) 
26213-95-6

>  <source>  (1856) 
Ptaeroxylon obliquum, Harrisonia perforate ,Neochamaelea pulverulenta.

>  <status>  (1856) 
undetermined activity

>  <tradename>  (1856) 
nan

>  <SMILES>  (1856) 
COc1c(CC=C(C)C)c2c(c(O)c1)c(=O)cc(C)o2

>  <standardized_failed>  (1856) 
False

$$$$

     RDKit          2D

 18 20  0  0  0  0  0  0  0  0999 V2000
    4.1250   -2.9417    0.0000 O   0  0  0  0  0  0  0  0  0  0  0  0
    7.3042   -4.7750    0.0000 C   0  0  0  0  0  0  0  0  0  0  0  0
    5.1875   -3.5417    0.0000 C   0  0  0  0  0  0  0  0  0  0  0  0
    8.3667   -5.3750    0.0000 O   0  0  0  0  0  0  0  0  0  0  0  0
    5.1875   -4.7750    0.0000 C   0  0  0  0  0  0  0  0  0  0  0  0
    6.2500   -5.3750    0.0000 C   0  0  0  0  0  0  0  0  0  0  0  0
    7.3042   -3.5417    0.0000 C   0  0  0  0  0  0  0  0  0  0  0  0
    9.4250   -4.7750    0.0000 C   0  0  0  0  0  0  0  0  0  0  0  0
    4.1250   -5.3750    0.0000 O   0  0  0  0  0  0  0  0  0  0  0  0
    3.0667   -3.5417    0.0000 C   0  0  0  0  0  0  0  0  0  0  0  0
    8.3667   -2.9417    0.0000 C   0  0  0  0  0  0  0  0  0  0  0  0
    6.2500   -2.9417    0.0000 C   0  0  0  0  0  0  0  0  0  0  0  0
    9.4250   -3.5417    0.0000 C   0  0  0  0  0  0  0  0  0  0  0  0
    1.9875   -2.9125    0.0000 C   0  0  0  0  0  0  0  0  0  0  0  0
    3.0667   -4.7750    0.0000 C   0  0  0  0  0  0  0  0  0  0  0  0
   10.5042   -5.4000    0.0000 O   0  0  0  0  0  0  0  0  0  0  0  0
    1.9875   -1.6792    0.0000 C   0  0  0  0  0  0  0  0  0  0  0  0
    0.9042   -3.5417    0.0000 C   0  0  0  0  0  0  0  0  0  0  0  0
  2  7  1  0
  3  1  1  0
  4  2  1  0
  5  3  2  0
  6  5  1  0
  7 12  2  0
  8 13  1  0
  9 15  1  0
 10  1  1  0
 11  7  1  0
 12  3  1  0
 13 11  2  0
 10 14  1  6
 15 10  1  0
 16  8  2  0
 17 14  2  0
 18 14  1  0
  5  9  1  0
  2  6  2  0
  4  8  1  0
M  END
>  <ID>  (1857) 


>  <MOLENAME>  (1857) 
OBLIQUIN

>  <therap>  (1857) 
nan

>  <ref>  (1857) 
J Chem Soc 1966: 114

>  <cas#>  (1857) 
nan

>  <source>  (1857) 
sneezewood or umtati, Ptaeroxylon Obliquum

>  <status>  (1857) 
undetermined activity

>  <tradename>  (1857) 
nan

>  <SMILES>  (1857) 
C=C(C)[C@H]1COc2c(cc3ccc(=O)oc3c2)O1

>  <standardized_failed>  (1857) 
False

$$$$

     RDKit          2D

 33 37  0  0  0  0  0  0  0  0999 V2000
    3.7917   -0.9417    0.0000 C   0  0  0  0  0  0  0  0  0  0  0  0
    3.7917    0.1708    0.0000 C   0  0  0  0  0  0  0  0  0  0  0  0
    2.8542   -1.5042    0.0000 C   0  0  0  0  0  0  0  0  0  0  0  0
    0.9417   -1.5042    0.0000 C   0  0  0  0  0  0  0  0  0  0  0  0
    5.6917    0.1708    0.0000 C   0  0  0  0  0  0  0  0  0  0  0  0
    4.7417    0.7083    0.0000 C   0  0  0  0  0  0  0  0  0  0  0  0
    1.8792   -0.9417    0.0000 C   0  0  0  0  0  0  0  0  0  0  0  0
    0.9417   -2.6167    0.0000 C   0  0  0  0  0  0  0  0  0  0  0  0
   -0.0208   -3.1542    0.0000 C   0  0  0  0  0  0  0  0  0  0  0  0
    2.8417    0.7083    0.0000 C   0  0  0  0  0  0  0  0  0  0  0  0
    6.6917   -0.3417    0.0000 C   0  0  0  0  0  0  0  0  0  0  0  0
    4.7542   -1.4792    0.0000 C   0  0  0  0  0  0  0  0  0  0  0  0
    2.8542   -2.5917    0.0000 C   0  0  0  0  0  0  0  0  0  0  0  0
    1.8792    0.1458    0.0000 C   0  0  0  0  0  0  0  0  0  0  0  0
    5.7167   -0.9417    0.0000 C   0  0  0  0  0  0  0  0  0  0  0  0
   -0.0208   -0.9417    0.0000 C   0  0  0  0  0  0  0  0  0  0  0  0
    1.8792   -3.1542    0.0000 C   0  0  0  0  0  0  0  0  0  0  0  0
    6.6542    0.7083    0.0000 C   0  0  0  0  0  0  0  0  0  0  0  0
    4.7417    1.8208    0.0000 C   0  0  0  0  0  0  0  0  0  0  0  0
   -0.9833   -2.6167    0.0000 C   0  0  0  0  0  0  0  0  0  0  0  0
    5.6792    2.3583    0.0000 C   0  0  0  0  0  0  0  0  0  0  0  0
    7.6667    0.2208    0.0000 O   0  0  0  0  0  0  0  0  0  0  0  0
   -0.9833   -1.5042    0.0000 C   0  0  0  0  0  0  0  0  0  0  0  0
    6.6542    1.8333    0.0000 C   0  0  0  0  0  0  0  0  0  0  0  0
    3.8292   -1.8667    0.0000 C   0  0  0  0  0  0  0  0  0  0  0  0
    6.7042   -1.4917    0.0000 O   0  0  0  0  0  0  0  0  0  0  0  0
    2.8917   -0.3750    0.0000 C   0  0  0  0  0  0  0  0  0  0  0  0
    0.9417   -0.3917    0.0000 C   0  0  0  0  0  0  0  0  0  0  0  0
    0.9542   -3.7417    0.0000 C   0  0  0  0  0  0  0  0  0  0  0  0
   -0.9583   -3.7292    0.0000 C   0  0  0  0  0  0  0  0  0  0  0  0
   -1.9458   -3.1542    0.0000 O   0  0  0  0  0  0  0  0  0  0  0  0
    6.6042    2.8833    0.0000 C   0  0  0  0  0  0  0  0  0  0  0  0
    4.7417    2.9083    0.0000 C   0  0  0  0  0  0  0  0  0  0  0  0
  2  1  1  0
  3  1  1  0
  4  7  1  0
  5 15  1  0
  6  2  1  0
  7  3  1  0
  8 17  1  0
  9  8  1  0
 10  2  2  0
  5 11  1  1
 12  1  1  0
 13  3  1  0
 14  7  1  0
 15 12  1  0
 16  4  1  0
 17 13  1  0
 18  5  1  0
 19  6  1  0
 20  9  1  0
 21 19  1  0
 22 11  2  0
 23 16  1  0
 24 18  1  0
  1 25  1  6
 26 11  1  0
  3 27  1  1
  4 28  1  1
 29  9  1  0
 30  9  1  0
 20 31  1  6
 32 21  1  0
 33 21  1  0
  5  6  1  0
 10 14  1  0
  8  4  1  0
 21 24  1  0
 20 23  1  0
M  END
>  <ID>  (1858) 


>  <MOLENAME>  (1858) 
OLEANOIC ACID

>  <therap>  (1858) 
nan

>  <ref>  (1858) 
J Chem Soc (C) 1939: 1047

>  <cas#>  (1858) 
508-02-1

>  <source>  (1858) 
leaves of Olea europea and Viscum album L.

>  <status>  (1858) 
undetermined activity

>  <tradename>  (1858) 
nan

>  <SMILES>  (1858) 
CC1(C)CC[C@]2(C(=O)O)CC[C@]3(C)C(=CCC4[C@@]5(C)CC[C@@H](O)C(C)(C)C5CC[C@]43C)C2C1

>  <standardized_failed>  (1858) 
False

$$$$

     RDKit          2D

 31 35  0  0  0  0  0  0  0  0999 V2000
    7.0917   -3.9042    0.0000 C   0  0  0  0  0  0  0  0  0  0  0  0
    7.0917   -2.8875    0.0000 C   0  0  0  0  0  0  0  0  0  0  0  0
    5.3042   -3.9042    0.0000 C   0  0  0  0  0  0  0  0  0  0  0  0
    4.4542   -5.4042    0.0000 C   0  0  0  0  0  0  0  0  0  0  0  0
    6.2042   -4.4167    0.0000 C   0  0  0  0  0  0  0  0  0  0  0  0
    4.4542   -4.3792    0.0000 C   0  0  0  0  0  0  0  0  0  0  0  0
    7.9542   -2.3792    0.0000 C   0  0  0  0  0  0  0  0  0  0  0  0
    3.5667   -5.9167    0.0000 C   0  0  0  0  0  0  0  0  0  0  0  0
    8.8292   -2.8875    0.0000 C   0  0  0  0  0  0  0  0  0  0  0  0
    6.1917   -2.3792    0.0000 C   0  0  0  0  0  0  0  0  0  0  0  0
    5.3042   -2.8875    0.0000 C   0  0  0  0  0  0  0  0  0  0  0  0
    5.3042   -5.9167    0.0000 C   0  0  0  0  0  0  0  0  0  0  0  0
    7.9542   -4.3792    0.0000 C   0  0  0  0  0  0  0  0  0  0  0  0
    6.2042   -5.4042    0.0000 C   0  0  0  0  0  0  0  0  0  0  0  0
    2.6917   -5.4042    0.0000 C   0  0  0  0  0  0  0  0  0  0  0  0
    3.5667   -3.9042    0.0000 C   0  0  0  0  0  0  0  0  0  0  0  0
    7.9542   -1.3875    0.0000 C   0  0  0  0  0  0  0  0  0  0  0  0
    8.8292   -3.8792    0.0000 C   0  0  0  0  0  0  0  0  0  0  0  0
    8.8292   -0.8792    0.0000 C   0  0  0  0  0  0  0  0  0  0  0  0
    2.6917   -4.4167    0.0000 C   0  0  0  0  0  0  0  0  0  0  0  0
    9.7042   -2.3792    0.0000 C   0  0  0  0  0  0  0  0  0  0  0  0
    1.7917   -5.8875    0.0000 O   0  0  0  0  0  0  0  0  0  0  0  0
    9.7042   -1.3875    0.0000 C   0  0  0  0  0  0  0  0  0  0  0  0
    7.0917   -1.9292    0.0000 C   0  0  0  0  0  0  0  0  0  0  0  0
    7.0917   -4.8542    0.0000 C   0  0  0  0  0  0  0  0  0  0  0  0
    5.3042   -4.8542    0.0000 C   0  0  0  0  0  0  0  0  0  0  0  0
    4.4500   -6.4000    0.0000 C   0  0  0  0  0  0  0  0  0  0  0  0
    9.7042   -3.4000    0.0000 C   0  0  0  0  0  0  0  0  0  0  0  0
    3.5542   -6.7292    0.0000 C   0  0  0  0  0  0  0  0  0  0  0  0
    7.9542   -0.4500    0.0000 C   0  0  0  0  0  0  0  0  0  0  0  0
    9.6167   -0.4500    0.0000 C   0  0  0  0  0  0  0  0  0  0  0  0
  2  1  1  0
  3  5  1  0
  4 12  1  0
  5  1  1  0
  6  3  1  0
  7  2  1  0
  8  4  1  0
  9 18  1  0
 10  2  1  0
 11  3  1  0
 12 14  1  0
 13  1  1  0
 14  5  1  0
 15  8  1  0
 16  6  1  0
 17  7  1  0
 18 13  1  0
 19 17  1  0
 20 16  1  0
 21  9  1  0
 22 15  2  0
 23 21  1  0
  2 24  1  6
  1 25  1  1
  3 26  1  1
  4 27  1  1
  9 28  1  1
  8 29  1  1
 30 19  1  0
 31 19  1  0
  9  7  1  0
 11 10  1  0
  6  4  1  0
 23 19  1  0
 20 15  1  0
M  END
>  <ID>  (1859) 


>  <MOLENAME>  (1859) 
FRIEDELIN

>  <therap>  (1859) 
nan

>  <ref>  (1859) 
J Chem Soc 1954: 473

>  <cas#>  (1859) 
559-74-0

>  <source>  (1859) 
Ceratopetalum apetalum D. Don, Cunoniaceae

>  <status>  (1859) 
undetermined activity

>  <tradename>  (1859) 
nan

>  <SMILES>  (1859) 
C[C@H]1C(=O)CCC2[C@]3(C)CC[C@@]4(C)C5CC(C)(C)CC[C@]5(C)CC[C@]4(C)C3CC[C@@]21C

>  <standardized_failed>  (1859) 
False

$$$$

     RDKit          2D

 19 21  0  0  0  0  0  0  0  0999 V2000
    1.3542    0.1125    0.0000 C   0  0  0  0  0  0  0  0  0  0  0  0
    0.3500    0.7000    0.0000 C   0  0  0  0  0  0  0  0  0  0  0  0
    2.4042    0.7000    0.0000 C   0  0  0  0  0  0  0  0  0  0  0  0
    1.3542   -1.1000    0.0000 C   0  0  0  0  0  0  0  0  0  0  0  0
   -0.7000    0.1125    0.0000 C   0  0  0  0  0  0  0  0  0  0  0  0
    3.4500    0.1125    0.0000 C   0  0  0  0  0  0  0  0  0  0  0  0
   -0.7000   -1.1000    0.0000 C   0  0  0  0  0  0  0  0  0  0  0  0
    2.4042   -1.6792    0.0000 O   0  0  0  0  0  0  0  0  0  0  0  0
    0.3500   -1.6792    0.0000 C   0  0  0  0  0  0  0  0  0  0  0  0
    3.4500   -1.1000    0.0000 C   0  0  0  0  0  0  0  0  0  0  0  0
   -1.6208   -1.8167    0.0000 O   0  0  0  0  0  0  0  0  0  0  0  0
   -1.6208    0.8333    0.0000 C   0  0  0  0  0  0  0  0  0  0  0  0
   -2.7833    0.5625    0.0000 C   0  0  0  0  0  0  0  0  0  0  0  0
    2.4042    1.9125    0.0000 O   0  0  0  0  0  0  0  0  0  0  0  0
   -3.2958   -0.4667    0.0000 C   0  0  0  0  0  0  0  0  0  0  0  0
   -2.7833   -1.5500    0.0000 C   0  0  0  0  0  0  0  0  0  0  0  0
    0.3500    1.9125    0.0000 O   0  0  0  0  0  0  0  0  0  0  0  0
    4.4875   -1.6792    0.0000 C   0  0  0  0  0  0  0  0  0  0  0  0
   -4.5208   -0.4667    0.0000 C   0  0  0  0  0  0  0  0  0  0  0  0
  2  1  2  0
  3  1  1  0
  4  1  1  0
  5  2  1  0
  6  3  1  0
  7  9  1  0
  8  4  1  0
  9  4  2  0
 10  8  1  0
 11  7  1  0
 12  5  1  0
 13 12  1  0
 14  3  2  0
 15 13  2  0
 16 11  1  0
 17  2  1  0
 18 10  1  0
 19 15  1  0
  7  5  2  0
 10  6  2  0
 16 15  1  0
M  END
>  <ID>  (1860) 


>  <MOLENAME>  (1860) 
PTAEROXYLIN

>  <therap>  (1860) 
nan

>  <ref>  (1860) 
J Chem Soc (C) 1966:114; 1967:145; Tet Lett 1967:3459 

>  <cas#>  (1860) 
14729-11-4

>  <source>  (1860) 
Ptaeroxylon obliquum, Cedrelopsis grevei

>  <status>  (1860) 
undetermined activity

>  <tradename>  (1860) 
nan

>  <SMILES>  (1860) 
CC1=CCc2c(cc3oc(C)cc(=O)c3c2O)OC1

>  <standardized_failed>  (1860) 
False

$$$$

     RDKit          2D

 46 52  0  0  0  0  0  0  0  0999 V2000
   -1.7333    0.7000    0.0000 C   0  0  0  0  0  0  0  0  0  0  0  0
    0.1292    0.2833    0.0000 C   0  0  0  0  0  0  0  0  0  0  0  0
   -2.4500   -0.5542    0.0000 C   0  0  0  0  0  0  0  0  0  0  0  0
    1.1042    1.7500    0.0000 C   0  0  0  0  0  0  0  0  0  0  0  0
   -0.2500   -0.4667    0.0000 C   0  0  0  0  0  0  0  0  0  0  0  0
   -0.7000    0.5333    0.0000 C   0  0  0  0  0  0  0  0  0  0  0  0
   -1.7333   -0.1375    0.0000 C   0  0  0  0  0  0  0  0  0  0  0  0
   -0.2500    1.0333    0.0000 C   0  0  0  0  0  0  0  0  0  0  0  0
    0.7292    1.0458    0.0000 C   0  0  0  0  0  0  0  0  0  0  0  0
   -2.3833    0.5333    0.0000 N   0  0  0  0  0  0  0  0  0  0  0  0
   -1.0708    1.2125    0.0000 C   0  0  0  0  0  0  0  0  0  0  0  0
    1.0167    0.2708    0.0000 C   0  0  0  0  0  0  0  0  0  0  0  0
    1.5042    0.9500    0.0000 C   0  0  0  0  0  0  0  0  0  0  0  0
   -1.0708   -0.6500    0.0000 C   0  0  0  0  0  0  0  0  0  0  0  0
   -2.8333    0.0708    0.0000 C   0  0  0  0  0  0  0  0  0  0  0  0
    0.1000    1.7500    0.0000 C   0  0  0  0  0  0  0  0  0  0  0  0
   -2.4500    1.1208    0.0000 C   0  0  0  0  0  0  0  0  0  0  0  0
    1.8167    1.5500    0.0000 O   0  0  0  0  0  0  0  0  0  0  0  0
   -3.1708   -0.1375    0.0000 C   0  0  0  0  0  0  0  0  0  0  0  0
    2.1917    2.3208    0.0000 C   0  0  0  0  0  0  0  0  0  0  0  0
   -3.1708    0.7000    0.0000 C   0  0  0  0  0  0  0  0  0  0  0  0
    0.5000   -0.6375    0.0000 O   0  0  0  0  0  0  0  0  0  0  0  0
   -3.3000    1.1833    0.0000 C   0  0  0  0  0  0  0  0  0  0  0  0
    0.1875   -1.3792    0.0000 C   0  0  0  0  0  0  0  0  0  0  0  0
    1.1042    2.5708    0.0000 O   0  0  0  0  0  0  0  0  0  0  0  0
    1.8875    3.0000    0.0000 O   0  0  0  0  0  0  0  0  0  0  0  0
    3.1000    2.0958    0.0000 C   0  0  0  0  0  0  0  0  0  0  0  0
   -2.4500   -1.4000    0.0000 C   0  0  0  0  0  0  0  0  0  0  0  0
   -4.0333    0.8125    0.0000 O   0  0  0  0  0  0  0  0  0  0  0  0
    1.3292   -0.5000    0.0000 O   0  0  0  0  0  0  0  0  0  0  0  0
   -0.5500   -1.2042    0.0000 O   0  0  0  0  0  0  0  0  0  0  0  0
    2.3792    0.8125    0.0000 O   0  0  0  0  0  0  0  0  0  0  0  0
   -1.2708   -1.4875    0.0000 O   0  0  0  0  0  0  0  0  0  0  0  0
   -2.4500    1.9625    0.0000 O   0  0  0  0  0  0  0  0  0  0  0  0
   -3.9125   -0.5542    0.0000 O   0  0  0  0  0  0  0  0  0  0  0  0
   -3.1708   -1.8167    0.0000 O   0  0  0  0  0  0  0  0  0  0  0  0
    0.4792   -2.0875    0.0000 C   0  0  0  0  0  0  0  0  0  0  0  0
    3.8042    2.5458    0.0000 C   0  0  0  0  0  0  0  0  0  0  0  0
    3.1000    1.2625    0.0000 C   0  0  0  0  0  0  0  0  0  0  0  0
   -2.0708   -1.7542    0.0000 C   0  0  0  0  0  0  0  0  0  0  0  0
    2.7167   -0.0042    0.0000 C   0  0  0  0  0  0  0  0  0  0  0  0
   -3.1708    2.3833    0.0000 C   0  0  0  0  0  0  0  0  0  0  0  0
   -3.1625   -2.6292    0.0000 C   0  0  0  0  0  0  0  0  0  0  0  0
    4.5667    2.1458    0.0000 C   0  0  0  0  0  0  0  0  0  0  0  0
    3.8792    0.8458    0.0000 C   0  0  0  0  0  0  0  0  0  0  0  0
    4.5667    1.2958    0.0000 C   0  0  0  0  0  0  0  0  0  0  0  0
  2  8  1  0
  3  7  1  0
  4 16  1  0
  5  6  1  0
  1  6  1  0
  7  1  1  0
  8 11  1  0
  9  8  1  0
 10  6  1  0
  1 11  1  1
 12  2  1  0
 13  4  1  0
 14  7  1  0
  3 15  1  0
 16 11  1  0
 17  1  1  0
 18  9  1  0
 19 21  1  0
 20 18  1  0
 21 17  1  0
 22  2  1  0
 23 10  1  0
 24 22  1  0
 25  4  1  0
 26 20  2  0
 27 20  1  0
  3 28  1  6
 29 23  2  0
 30 12  1  0
 31 24  2  0
 32 13  1  0
 14 33  1  6
 17 34  1  6
 19 35  1  6
 36 28  1  0
 37 24  1  0
 38 27  2  0
 39 27  1  0
 40 33  1  0
 41 32  1  0
 42 34  1  0
 43 36  1  0
 44 38  1  0
 45 39  2  0
 46 45  1  0
  5 14  1  0
  5  2  1  1
 19  3  1  0
  4  9  1  0
 15 10  1  0
 12 13  1  0
 44 46  2  0
M  END
>  <ID>  (1861) 


>  <MOLENAME>  (1861) 
OXONITINE

>  <therap>  (1861) 
nan

>  <ref>  (1861) 
J Am Chem Soc 76: 4048 (1954)

>  <cas#>  (1861) 
nan

>  <source>  (1861) 
derivative of aconitine

>  <status>  (1861) 
undetermined activity

>  <tradename>  (1861) 
nan

>  <SMILES>  (1861) 
COC[C@]12CN(C=O)C3[C@@H]4[C@H](OC)C1[C@]3(C1CC3(O)C(OC)C(O)C4(OC(C)=O)C1C3OC(=O)c1ccccc1)[C@@H](OC)C[C@H]2O

>  <standardized_failed>  (1861) 
False

$$$$

     RDKit          2D

 13 14  0  0  0  0  0  0  0  0999 V2000
    3.6542   -1.3000    0.0000 O   0  0  0  0  0  0  0  0  0  0  0  0
    2.9500   -1.7167    0.0000 C   0  0  0  0  0  0  0  0  0  0  0  0
    4.3750   -1.7042    0.0000 C   0  0  0  0  0  0  0  0  0  0  0  0
    3.6667   -2.9542    0.0000 C   0  0  0  0  0  0  0  0  0  0  0  0
    4.3792   -2.5375    0.0000 C   0  0  0  0  0  0  0  0  0  0  0  0
    2.9500   -2.5417    0.0000 C   0  0  0  0  0  0  0  0  0  0  0  0
    2.2292   -1.3042    0.0000 C   0  0  0  0  0  0  0  0  0  0  0  0
    5.0875   -1.2917    0.0000 O   0  0  0  0  0  0  0  0  0  0  0  0
    2.2292   -2.9542    0.0000 C   0  0  0  0  0  0  0  0  0  0  0  0
    1.5167   -1.7167    0.0000 C   0  0  0  0  0  0  0  0  0  0  0  0
    1.5167   -2.5417    0.0000 C   0  0  0  0  0  0  0  0  0  0  0  0
    0.8042   -1.3042    0.0000 O   0  0  0  0  0  0  0  0  0  0  0  0
    0.8042   -0.4792    0.0000 C   0  0  0  0  0  0  0  0  0  0  0  0
  2  1  1  0
  3  1  1  0
  4  5  2  0
  5  3  1  0
  6  2  2  0
  7  2  1  0
  8  3  2  0
  9  6  1  0
 10  7  2  0
 11 10  1  0
 12 10  1  0
 13 12  1  0
  6  4  1  0
  9 11  2  0
M  END
>  <ID>  (1862) 


>  <MOLENAME>  (1862) 
HERNIARIN

>  <therap>  (1862) 
nan

>  <ref>  (1862) 
nan

>  <cas#>  (1862) 
551-59-9

>  <source>  (1862) 
Herniaria spp.

>  <status>  (1862) 
undetermined activity

>  <tradename>  (1862) 
nan

>  <SMILES>  (1862) 
COc1cc2c(cc1)ccc(=O)o2

>  <standardized_failed>  (1862) 
False

$$$$

     RDKit          2D

 17 18  0  0  0  0  0  0  0  0999 V2000
    3.1417   -0.1375    0.0000 C   0  0  0  0  0  0  0  0  0  0  0  0
    1.7125   -0.1375    0.0000 C   0  0  0  0  0  0  0  0  0  0  0  0
    4.5750   -0.1375    0.0000 N   0  0  0  0  0  0  0  0  0  0  0  0
    2.4292   -0.5500    0.0000 C   0  0  0  0  0  0  0  0  0  0  0  0
    1.7125    0.6875    0.0000 C   0  0  0  0  0  0  0  0  0  0  0  0
    3.1417    0.6875    0.0000 C   0  0  0  0  0  0  0  0  0  0  0  0
    3.8542   -0.5500    0.0000 C   0  0  0  0  0  0  0  0  0  0  0  0
    2.4292    1.1000    0.0000 C   0  0  0  0  0  0  0  0  0  0  0  0
    0.9292   -0.3917    0.0000 O   0  0  0  0  0  0  0  0  0  0  0  0
    0.9292    0.9458    0.0000 O   0  0  0  0  0  0  0  0  0  0  0  0
    0.4500    0.2833    0.0000 C   0  0  0  0  0  0  0  0  0  0  0  0
    4.5750    0.6875    0.0000 C   0  0  0  0  0  0  0  0  0  0  0  0
    3.8542    1.1000    0.0000 C   0  0  0  0  0  0  0  0  0  0  0  0
    3.9792   -1.8042    0.0000 Cl  0  0  0  0  0  0  0  0  0  0  0  0
    2.4292   -1.3750    0.0000 O   0  0  0  0  0  0  0  0  0  0  0  0
    5.2917   -0.5500    0.0000 C   0  0  0  0  0  0  0  0  0  0  0  0
    1.7167   -1.7875    0.0000 C   0  0  0  0  0  0  0  0  0  0  0  0
  2  4  2  0
  3  7  2  0
  4  1  1  0
  5  8  2  0
  6  1  2  0
  7  1  1  0
  8  6  1  0
  9  2  1  0
 10  5  1  0
 11  9  1  0
 12  3  1  0
 13  6  1  0
 15  4  1  0
 16  3  1  0
 17 15  1  0
 12 13  1  0
  2  5  1  0
 11 10  1  0
M  CHG  2   3   1  14  -1
M  END
>  <ID>  (1863) 


>  <MOLENAME>  (1863) 
COTARNINE CHLORIDE

>  <therap>  (1863) 
vasoconstrictor

>  <ref>  (1863) 
J Indian Chem Soc 12: 421 (1935); J Nat Prod 53:1302 (1990)

>  <cas#>  (1863) 
10018-19-6, 82-54-2 [cotarnine]

>  <source>  (1863) 
Papaver pseudo-orientale

>  <status>  (1863) 
experimental

>  <tradename>  (1863) 
nan

>  <SMILES>  (1863) 
COc1c2OCOc2cc2c1C=[N+](C)CC2

>  <standardized_failed>  (1863) 
False

$$$$

     RDKit          2D

  8  8  0  0  0  0  0  0  0  0999 V2000
   -0.0208    0.2583    0.0000 N   0  0  0  0  0  0  0  0  0  0  0  0
    0.2125   -0.4625    0.0000 C   0  0  0  0  0  0  0  0  0  0  0  0
    0.5875    0.6958    0.0000 C   0  0  0  0  0  0  0  0  0  0  0  0
    0.9625   -0.4625    0.0000 N   0  0  0  0  0  0  0  0  0  0  0  0
    1.1917    0.2583    0.0000 C   0  0  0  0  0  0  0  0  0  0  0  0
   -0.2333   -1.0667    0.0000 O   0  0  0  0  0  0  0  0  0  0  0  0
    0.5792    1.4458    0.0000 O   0  0  0  0  0  0  0  0  0  0  0  0
    1.9042    0.4833    0.0000 C   0  0  0  0  0  0  0  0  0  0  0  0
  2  1  1  0
  3  1  1  0
  4  2  1  0
  5  3  1  0
  6  2  2  0
  7  3  2  0
  8  5  1  0
  5  4  1  0
M  END
>  <ID>  (1864) 


>  <MOLENAME>  (1864) 
5-METHYLHYDANTOIN

>  <therap>  (1864) 
anticonvulsant

>  <ref>  (1864) 
nan

>  <cas#>  (1864) 
616-03-5

>  <source>  (1864) 
synthetic

>  <status>  (1864) 
experimental

>  <tradename>  (1864) 
nan

>  <SMILES>  (1864) 
CC1NC(=O)NC1=O

>  <standardized_failed>  (1864) 
False

$$$$

     RDKit          2D

 14 15  0  0  0  0  0  0  0  0999 V2000
    0.4500    0.2708    0.0000 C   0  0  0  0  0  0  0  0  0  0  0  0
    0.9875   -0.5042    0.0000 C   0  0  0  0  0  0  0  0  0  0  0  0
    0.4500   -1.2542    0.0000 N   0  0  0  0  0  0  0  0  0  0  0  0
   -0.4500   -0.0292    0.0000 C   0  0  0  0  0  0  0  0  0  0  0  0
   -0.4500   -0.9875    0.0000 C   0  0  0  0  0  0  0  0  0  0  0  0
    0.7667    1.1708    0.0000 C   0  0  0  0  0  0  0  0  0  0  0  0
    0.1292    1.8958    0.0000 N   0  0  0  0  0  0  0  0  0  0  0  0
    1.9500   -0.5042    0.0000 C   0  0  0  0  0  0  0  0  0  0  0  0
   -1.2708    0.4500    0.0000 C   0  0  0  0  0  0  0  0  0  0  0  0
   -1.2708   -1.4375    0.0000 C   0  0  0  0  0  0  0  0  0  0  0  0
    0.4292    2.7708    0.0000 C   0  0  0  0  0  0  0  0  0  0  0  0
   -0.7958    1.6833    0.0000 C   0  0  0  0  0  0  0  0  0  0  0  0
   -2.0958   -0.0292    0.0000 C   0  0  0  0  0  0  0  0  0  0  0  0
   -2.0958   -0.9875    0.0000 C   0  0  0  0  0  0  0  0  0  0  0  0
  2  1  2  0
  3  2  1  0
  4  1  1  0
  5  4  2  0
  6  1  1  0
  7  6  1  0
  8  2  1  0
  9  4  1  0
 10  5  1  0
 11  7  1  0
 12  7  1  0
 13  9  2  0
 14 13  1  0
  5  3  1  0
 10 14  2  0
M  END
>  <ID>  (1865) 


>  <MOLENAME>  (1865) 
2-METHYL GRAMINE

>  <therap>  (1865) 
nan

>  <ref>  (1865) 
nan

>  <cas#>  (1865) 
nan

>  <source>  (1865) 
derivative

>  <status>  (1865) 
undetermined activity

>  <tradename>  (1865) 
nan

>  <SMILES>  (1865) 
Cc1c(CN(C)C)c2c(cccc2)[nH]1

>  <standardized_failed>  (1865) 
False

$$$$

     RDKit          2D

 17 19  0  0  0  0  0  0  0  0999 V2000
    1.8375   -1.2292    0.0000 C   0  0  0  0  0  0  0  0  0  0  0  0
   -0.2833   -1.2292    0.0000 C   0  0  0  0  0  0  0  0  0  0  0  0
    2.9000   -1.8292    0.0000 O   0  0  0  0  0  0  0  0  0  0  0  0
   -1.3458   -1.8292    0.0000 O   0  0  0  0  0  0  0  0  0  0  0  0
    0.7792   -1.8292    0.0000 C   0  0  0  0  0  0  0  0  0  0  0  0
    1.8375   -0.0000    0.0000 C   0  0  0  0  0  0  0  0  0  0  0  0
   -0.2833   -0.0000    0.0000 C   0  0  0  0  0  0  0  0  0  0  0  0
    3.9542   -1.2292    0.0000 C   0  0  0  0  0  0  0  0  0  0  0  0
    2.9000    0.6000    0.0000 C   0  0  0  0  0  0  0  0  0  0  0  0
   -1.3458    0.6000    0.0000 C   0  0  0  0  0  0  0  0  0  0  0  0
   -2.4000   -1.2292    0.0000 C   0  0  0  0  0  0  0  0  0  0  0  0
    0.7792    0.6000    0.0000 C   0  0  0  0  0  0  0  0  0  0  0  0
    3.9542   -0.0000    0.0000 C   0  0  0  0  0  0  0  0  0  0  0  0
   -2.4000   -0.0000    0.0000 C   0  0  0  0  0  0  0  0  0  0  0  0
    5.0375   -1.8542    0.0000 O   0  0  0  0  0  0  0  0  0  0  0  0
   -3.3208   -0.7000    0.0000 C   0  0  0  0  0  0  0  0  0  0  0  0
   -2.4000   -2.2542    0.0000 C   0  0  0  0  0  0  0  0  0  0  0  0
  2  5  1  0
  3  1  1  0
  4  2  1  0
  5  1  2  0
  6  1  1  0
  7 12  1  0
  8  3  1  0
  9  6  1  0
 10  7  1  0
 11  4  1  0
 12  6  2  0
 13  9  2  0
 14 10  2  0
 15  8  2  0
 16 11  1  0
 17 11  1  0
  2  7  2  0
  8 13  1  0
 11 14  1  0
M  END
>  <ID>  (1866) 


>  <MOLENAME>  (1866) 
XANTHYLETIN

>  <therap>  (1866) 
nan

>  <ref>  (1866) 
J Chem Soc (C) 1969:33; Phytochemistry 11:3479 (1972)

>  <cas#>  (1866) 
553-19-5

>  <source>  (1866) 
Brosimum rubescens, Ruta, Boenninghausenia, Flindersia, Zanthoxylum, and Luvunga spp.

>  <status>  (1866) 
undetermined activity

>  <tradename>  (1866) 
nan

>  <SMILES>  (1866) 
CC1(C)C=Cc2c(cc3oc(=O)ccc3c2)O1

>  <standardized_failed>  (1866) 
False

$$$$

     RDKit          2D

 20 21  0  0  0  0  0  0  0  0999 V2000
    0.9792   -0.6375    0.0000 C   0  0  0  0  0  0  0  0  0  0  0  0
    1.9417   -0.0625    0.0000 C   0  0  0  0  0  0  0  0  0  0  0  0
    0.0417   -0.0917    0.0000 C   0  0  0  0  0  0  0  0  0  0  0  0
    2.8792   -0.6042    0.0000 C   0  0  0  0  0  0  0  0  0  0  0  0
    0.9792   -1.7125    0.0000 C   0  0  0  0  0  0  0  0  0  0  0  0
   -0.9000   -0.6375    0.0000 C   0  0  0  0  0  0  0  0  0  0  0  0
    3.8167   -0.0625    0.0000 C   0  0  0  0  0  0  0  0  0  0  0  0
    1.9417    1.0125    0.0000 O   0  0  0  0  0  0  0  0  0  0  0  0
    3.8167    1.0125    0.0000 C   0  0  0  0  0  0  0  0  0  0  0  0
    4.7792   -0.6042    0.0000 C   0  0  0  0  0  0  0  0  0  0  0  0
   -0.9000   -1.7417    0.0000 C   0  0  0  0  0  0  0  0  0  0  0  0
    0.0417    1.0125    0.0000 O   0  0  0  0  0  0  0  0  0  0  0  0
    0.0417   -2.2542    0.0000 C   0  0  0  0  0  0  0  0  0  0  0  0
    5.7000    1.0458    0.0000 C   0  0  0  0  0  0  0  0  0  0  0  0
    5.7000   -0.0625    0.0000 C   0  0  0  0  0  0  0  0  0  0  0  0
    4.7625    1.5583    0.0000 C   0  0  0  0  0  0  0  0  0  0  0  0
   -1.8458   -2.3125    0.0000 O   0  0  0  0  0  0  0  0  0  0  0  0
    6.6417    1.6125    0.0000 O   0  0  0  0  0  0  0  0  0  0  0  0
    2.8792   -1.7125    0.0000 C   0  0  0  0  0  0  0  0  0  0  0  0
    7.6000    1.1083    0.0000 C   0  0  0  0  0  0  0  0  0  0  0  0
  2  1  1  0
  3  1  2  0
  4  2  1  0
  5  1  1  0
  6  3  1  0
  7  4  1  0
  8  2  2  0
  9  7  2  0
 10  7  1  0
 11 13  1  0
 12  3  1  0
 13  5  2  0
 14 15  1  0
 15 10  2  0
 16  9  1  0
 17 11  1  0
 18 14  1  0
  4 19  1  1
 20 18  1  0
 11  6  2  0
 16 14  2  0
M  END
>  <ID>  (1867) 


>  <MOLENAME>  (1867) 
ANGOLENSIN (R)

>  <therap>  (1867) 
nan

>  <ref>  (1867) 
J  Chem  Soc 1959: 2679; 1963: 5573

>  <cas#>  (1867) 
4842-48-2

>  <source>  (1867) 
Pericopsis and Pterocarpus spp

>  <status>  (1867) 
undetermined activity

>  <tradename>  (1867) 
nan

>  <SMILES>  (1867) 
COc1ccc([C@@H](C)C(=O)c2c(O)cc(O)cc2)cc1

>  <standardized_failed>  (1867) 
False

$$$$

     RDKit          2D

 16 18  0  0  0  0  0  0  0  0999 V2000
    5.7542   -3.5167    0.0000 C   0  0  0  0  0  0  0  0  0  0  0  0
    6.4667   -3.1250    0.0000 C   0  0  0  0  0  0  0  0  0  0  0  0
    5.7542   -4.3500    0.0000 C   0  0  0  0  0  0  0  0  0  0  0  0
    5.0500   -3.1250    0.0000 C   0  0  0  0  0  0  0  0  0  0  0  0
    7.2042   -3.5167    0.0000 C   0  0  0  0  0  0  0  0  0  0  0  0
    5.0500   -4.7792    0.0000 C   0  0  0  0  0  0  0  0  0  0  0  0
    6.5042   -4.7375    0.0000 C   0  0  0  0  0  0  0  0  0  0  0  0
    7.2042   -4.3167    0.0000 C   0  0  0  0  0  0  0  0  0  0  0  0
    4.3375   -3.5167    0.0000 C   0  0  0  0  0  0  0  0  0  0  0  0
    4.3375   -4.3500    0.0000 C   0  0  0  0  0  0  0  0  0  0  0  0
    5.7542   -2.6000    0.0000 C   0  0  0  0  0  0  0  0  0  0  0  0
    3.6250   -4.7667    0.0000 O   0  0  0  0  0  0  0  0  0  0  0  0
    6.4667   -2.3042    0.0000 C   0  0  0  0  0  0  0  0  0  0  0  0
    7.9125   -3.1250    0.0000 C   0  0  0  0  0  0  0  0  0  0  0  0
    7.2042   -1.8792    0.0000 C   0  0  0  0  0  0  0  0  0  0  0  0
    7.9125   -2.3042    0.0000 C   0  0  0  0  0  0  0  0  0  0  0  0
  2  1  1  0
  3  1  1  0
  4  1  1  0
  5  2  2  0
  3  6  1  6
  7  3  1  0
  8  7  1  0
  9  4  1  0
 10  9  1  0
  1 11  1  1
 10 12  1  6
 13  2  1  0
 14  5  1  0
 15 13  2  0
 16 15  1  0
 10  6  1  0
  5  8  1  0
 14 16  2  0
M  END
>  <ID>  (1868) 


>  <MOLENAME>  (1868) 
3alpha-HYDROXY-4.4-BISNOR-8.11.13-PODOCARPATRIENE

>  <therap>  (1868) 
nan

>  <ref>  (1868) 
nan

>  <cas#>  (1868) 
nan

>  <source>  (1868) 
semisynthetic

>  <status>  (1868) 
undetermined activity

>  <tradename>  (1868) 
nan

>  <SMILES>  (1868) 
C[C@]12CC[C@@H](O)C[C@H]1CCc1c2cccc1

>  <standardized_failed>  (1868) 
False

$$$$

     RDKit          2D

 34 38  0  0  0  0  0  0  0  0999 V2000
    1.2000    0.2333    0.0000 C   0  0  0  0  0  0  0  0  0  0  0  0
    2.0875   -0.2667    0.0000 C   0  0  0  0  0  0  0  0  0  0  0  0
    0.3042   -0.2667    0.0000 C   0  0  0  0  0  0  0  0  0  0  0  0
    1.2000    1.2708    0.0000 C   0  0  0  0  0  0  0  0  0  0  0  0
    1.2042   -0.8000    0.0000 O   0  0  0  0  0  0  0  0  0  0  0  0
   -1.5125   -0.2667    0.0000 C   0  0  0  0  0  0  0  0  0  0  0  0
   -0.6125    0.2333    0.0000 C   0  0  0  0  0  0  0  0  0  0  0  0
    2.9875    0.2333    0.0000 C   0  0  0  0  0  0  0  0  0  0  0  0
   -1.5125   -1.3042    0.0000 C   0  0  0  0  0  0  0  0  0  0  0  0
    2.0875    1.8000    0.0000 C   0  0  0  0  0  0  0  0  0  0  0  0
    2.9875    1.2708    0.0000 O   0  0  0  0  0  0  0  0  0  0  0  0
    0.3042   -1.2875    0.0000 C   0  0  0  0  0  0  0  0  0  0  0  0
   -2.3958   -1.8375    0.0000 C   0  0  0  0  0  0  0  0  0  0  0  0
   -0.5708   -1.7875    0.0000 C   0  0  0  0  0  0  0  0  0  0  0  0
    0.3042    1.8000    0.0000 C   0  0  0  0  0  0  0  0  0  0  0  0
    2.0792    2.8125    0.0000 C   0  0  0  0  0  0  0  0  0  0  0  0
   -0.6125    1.2708    0.0000 C   0  0  0  0  0  0  0  0  0  0  0  0
   -3.3000   -1.3042    0.0000 C   0  0  0  0  0  0  0  0  0  0  0  0
   -2.3958    0.2333    0.0000 C   0  0  0  0  0  0  0  0  0  0  0  0
    1.2000   -1.8042    0.0000 O   0  0  0  0  0  0  0  0  0  0  0  0
    1.2000   -2.8167    0.0000 C   0  0  0  0  0  0  0  0  0  0  0  0
    3.8875   -0.3000    0.0000 O   0  0  0  0  0  0  0  0  0  0  0  0
   -3.3000   -0.2667    0.0000 C   0  0  0  0  0  0  0  0  0  0  0  0
    1.1167    3.3625    0.0000 O   0  0  0  0  0  0  0  0  0  0  0  0
   -4.2208   -1.8375    0.0000 O   0  0  0  0  0  0  0  0  0  0  0  0
    2.0792   -3.3375    0.0000 O   0  0  0  0  0  0  0  0  0  0  0  0
    0.3042    0.9833    0.0000 C   0  0  0  0  0  0  0  0  0  0  0  0
    1.2000    2.3208    0.0000 C   0  0  0  0  0  0  0  0  0  0  0  0
   -1.5125    0.9000    0.0000 C   0  0  0  0  0  0  0  0  0  0  0  0
    2.9292    3.3958    0.0000 O   0  0  0  0  0  0  0  0  0  0  0  0
   -3.3000   -2.3875    0.0000 C   0  0  0  0  0  0  0  0  0  0  0  0
   -1.5125   -2.3875    0.0000 C   0  0  0  0  0  0  0  0  0  0  0  0
    0.2375   -3.3875    0.0000 C   0  0  0  0  0  0  0  0  0  0  0  0
    3.8375    2.8625    0.0000 C   0  0  0  0  0  0  0  0  0  0  0  0
  2  1  1  0
  3  1  1  0
  4  1  1  0
  5  1  1  0
  6  7  1  0
  7  3  1  0
  8  2  1  0
  9 14  1  0
 10  4  1  0
 11 10  1  0
 12  3  1  0
 13  9  1  0
 14 12  1  0
 15  4  1  0
 10 16  1  6
 17 15  1  0
 18 13  1  0
 19  6  1  0
 12 20  1  6
 21 20  1  0
 22  8  2  0
 23 19  1  0
 24 16  2  0
 25 18  2  0
 26 21  2  0
  3 27  1  1
  4 28  1  6
  6 29  1  1
 30 16  1  0
 31 13  1  0
 32 13  1  0
 33 21  1  0
 34 30  1  0
  2  5  1  0
 17  7  1  0
  8 11  1  0
  6  9  1  0
 18 23  1  0
M  END
>  <ID>  (1869) 


>  <MOLENAME>  (1869) 
DIHYDROGEDUNIC ACID. METHYL ESTER

>  <therap>  (1869) 
nan

>  <ref>  (1869) 
nan

>  <cas#>  (1869) 
nan

>  <source>  (1869) 
derivative

>  <status>  (1869) 
undetermined activity

>  <tradename>  (1869) 
nan

>  <SMILES>  (1869) 
COC(=O)[C@@H]1OC(=O)C2OC23[C@@]1(C)CCC1[C@@]3(C)[C@H](OC(C)=O)CC2C(C)(C)C(=O)CC[C@@]21C

>  <standardized_failed>  (1869) 
False

$$$$

     RDKit          2D

 34 38  0  0  0  0  0  0  0  0999 V2000
    6.8042   -3.7375    0.0000 C   0  0  0  0  0  0  0  0  0  0  0  0
    6.0917   -4.1500    0.0000 C   0  0  0  0  0  0  0  0  0  0  0  0
    6.8042   -2.9125    0.0000 C   0  0  0  0  0  0  0  0  0  0  0  0
    4.6625   -4.1500    0.0000 C   0  0  0  0  0  0  0  0  0  0  0  0
    5.3792   -3.7375    0.0000 C   0  0  0  0  0  0  0  0  0  0  0  0
    4.6625   -4.9792    0.0000 C   0  0  0  0  0  0  0  0  0  0  0  0
    7.5167   -2.5000    0.0000 C   0  0  0  0  0  0  0  0  0  0  0  0
    6.0917   -4.9792    0.0000 C   0  0  0  0  0  0  0  0  0  0  0  0
    3.9500   -5.3917    0.0000 C   0  0  0  0  0  0  0  0  0  0  0  0
    7.5167   -4.1500    0.0000 C   0  0  0  0  0  0  0  0  0  0  0  0
    8.2375   -2.9125    0.0000 O   0  0  0  0  0  0  0  0  0  0  0  0
    5.3792   -5.3917    0.0000 C   0  0  0  0  0  0  0  0  0  0  0  0
    7.5167   -1.6750    0.0000 C   0  0  0  0  0  0  0  0  0  0  0  0
    8.2375   -3.7375    0.0000 C   0  0  0  0  0  0  0  0  0  0  0  0
    6.0917   -2.5000    0.0000 C   0  0  0  0  0  0  0  0  0  0  0  0
    5.3792   -2.9125    0.0000 C   0  0  0  0  0  0  0  0  0  0  0  0
    3.9500   -3.7375    0.0000 C   0  0  0  0  0  0  0  0  0  0  0  0
    6.8167   -5.4042    0.0000 O   0  0  0  0  0  0  0  0  0  0  0  0
    6.8125   -6.2292    0.0000 C   0  0  0  0  0  0  0  0  0  0  0  0
    3.2292   -4.9792    0.0000 C   0  0  0  0  0  0  0  0  0  0  0  0
    8.1875   -1.1875    0.0000 C   0  0  0  0  0  0  0  0  0  0  0  0
    6.8500   -1.1875    0.0000 C   0  0  0  0  0  0  0  0  0  0  0  0
    7.9292   -0.4042    0.0000 O   0  0  0  0  0  0  0  0  0  0  0  0
    8.9542   -4.1500    0.0000 O   0  0  0  0  0  0  0  0  0  0  0  0
    7.1042   -0.4042    0.0000 C   0  0  0  0  0  0  0  0  0  0  0  0
    3.2292   -4.1500    0.0000 C   0  0  0  0  0  0  0  0  0  0  0  0
    6.0917   -6.6375    0.0000 O   0  0  0  0  0  0  0  0  0  0  0  0
    6.1292   -3.3042    0.0000 C   0  0  0  0  0  0  0  0  0  0  0  0
    6.8042   -2.0792    0.0000 C   0  0  0  0  0  0  0  0  0  0  0  0
    4.6625   -3.3667    0.0000 C   0  0  0  0  0  0  0  0  0  0  0  0
    3.3625   -5.9750    0.0000 C   0  0  0  0  0  0  0  0  0  0  0  0
    4.5292   -5.9750    0.0000 C   0  0  0  0  0  0  0  0  0  0  0  0
    2.5042   -5.4000    0.0000 O   0  0  0  0  0  0  0  0  0  0  0  0
    7.5167   -6.6417    0.0000 C   0  0  0  0  0  0  0  0  0  0  0  0
  2  1  1  0
  3  1  1  0
  4  5  1  0
  5  2  1  0
  6 12  1  0
  7  3  1  0
  8  2  1  0
  9  6  1  0
 10  1  2  0
 11 14  1  0
 12  8  1  0
  7 13  1  0
 14 10  1  0
 15  3  1  0
 16 15  1  0
 17  4  1  0
  8 18  1  6
 19 18  1  0
 20  9  1  0
 21 13  2  0
 22 13  1  0
 23 21  1  0
 24 14  2  0
 25 22  2  0
 26 17  1  0
 27 19  2  0
 28  2  1  0
  3 29  1  6
 30  4  1  0
 31  9  1  0
 32  9  1  0
 20 33  1  1
 34 19  1  0
  7 11  1  6
  5 16  1  0
  4  6  1  0
 25 23  1  0
 26 20  1  0
M  END
>  <ID>  (1870) 


>  <MOLENAME>  (1870) 
3beta-HYDROXYDEOXODIHYDRODEOXYGEDUNIN

>  <therap>  (1870) 
nan

>  <ref>  (1870) 
nan

>  <cas#>  (1870) 
nan

>  <source>  (1870) 
Meliaceae spp

>  <status>  (1870) 
undetermined activity

>  <tradename>  (1870) 
nan

>  <SMILES>  (1870) 
CC(=O)O[C@@H]1CC2C(C)(CC[C@H](O)C2(C)C)C2CC[C@]3(C)C(=CC(=O)O[C@H]3c3cocc3)C21C

>  <standardized_failed>  (1870) 
False

$$$$

     RDKit          2D

 28 31  0  0  0  0  0  0  0  0999 V2000
    2.0417   -0.7250    0.0000 C   0  0  0  0  0  0  0  0  0  0  0  0
    1.3292   -1.1375    0.0000 C   0  0  0  0  0  0  0  0  0  0  0  0
    2.7542   -1.1375    0.0000 C   0  0  0  0  0  0  0  0  0  0  0  0
    3.4750    0.1000    0.0000 C   0  0  0  0  0  0  0  0  0  0  0  0
    3.4750   -0.7250    0.0000 C   0  0  0  0  0  0  0  0  0  0  0  0
    2.0417    0.1000    0.0000 C   0  0  0  0  0  0  0  0  0  0  0  0
    2.7542    0.5125    0.0000 O   0  0  0  0  0  0  0  0  0  0  0  0
    4.1875    0.5125    0.0000 C   0  0  0  0  0  0  0  0  0  0  0  0
    0.6167   -0.7250    0.0000 C   0  0  0  0  0  0  0  0  0  0  0  0
    1.3292   -1.9667    0.0000 C   0  0  0  0  0  0  0  0  0  0  0  0
    4.1875    1.3375    0.0000 C   0  0  0  0  0  0  0  0  0  0  0  0
    0.6167    0.1000    0.0000 O   0  0  0  0  0  0  0  0  0  0  0  0
   -0.1000   -1.1375    0.0000 C   0  0  0  0  0  0  0  0  0  0  0  0
    4.1875   -1.1375    0.0000 C   0  0  0  0  0  0  0  0  0  0  0  0
    0.6167   -2.3792    0.0000 C   0  0  0  0  0  0  0  0  0  0  0  0
   -0.1000   -1.9667    0.0000 C   0  0  0  0  0  0  0  0  0  0  0  0
    1.3292    0.5125    0.0000 C   0  0  0  0  0  0  0  0  0  0  0  0
    4.9042    0.1000    0.0000 C   0  0  0  0  0  0  0  0  0  0  0  0
    2.7542   -1.9625    0.0000 O   0  0  0  0  0  0  0  0  0  0  0  0
    2.0542   -1.4042    0.0000 O   0  0  0  0  0  0  0  0  0  0  0  0
    4.9000    1.7500    0.0000 O   0  0  0  0  0  0  0  0  0  0  0  0
    4.9042   -0.7250    0.0000 C   0  0  0  0  0  0  0  0  0  0  0  0
    3.4667    1.7500    0.0000 O   0  0  0  0  0  0  0  0  0  0  0  0
    0.6292   -3.2042    0.0000 O   0  0  0  0  0  0  0  0  0  0  0  0
   -0.8250   -2.3792    0.0000 O   0  0  0  0  0  0  0  0  0  0  0  0
    5.6250    0.5208    0.0000 O   0  0  0  0  0  0  0  0  0  0  0  0
   -0.0833   -3.6167    0.0000 C   0  0  0  0  0  0  0  0  0  0  0  0
   -0.8333   -3.2167    0.0000 C   0  0  0  0  0  0  0  0  0  0  0  0
  2  1  1  0
  3  1  1  0
  4  7  1  0
  5  3  1  0
  6  1  1  0
  7  6  1  0
  8  4  2  0
  9  2  2  0
 10  2  1  0
 11  8  1  0
 12 17  1  0
 13  9  1  0
 14  5  2  0
 15 10  2  0
 16 15  1  0
 17  6  1  0
 18  8  1  0
 19  3  2  0
 20  1  1  0
 21 11  2  0
 22 14  1  0
 23 11  1  0
 24 15  1  0
 25 16  1  0
 26 18  1  0
 27 24  1  0
 28 25  1  0
  4  5  1  0
 12  9  1  0
 18 22  2  0
 16 13  2  0
M  END
>  <ID>  (1871) 


>  <MOLENAME>  (1871) 
12a-HYDROXY-9-DEMETHYLMUNDUSERONE-8-CARBOXYLIC ACID

>  <therap>  (1871) 
nan

>  <ref>  (1871) 
nan

>  <cas#>  (1871) 
nan

>  <source>  (1871) 
derivative

>  <status>  (1871) 
undetermined activity

>  <tradename>  (1871) 
nan

>  <SMILES>  (1871) 
COc1cc2c(cc1OC)C1(O)C(=O)c3ccc(O)c(C(=O)O)c3OC1CO2

>  <standardized_failed>  (1871) 
False

$$$$

     RDKit          2D

 22 25  0  0  0  0  0  0  0  0999 V2000
   -1.7958    0.2458    0.0000 C   0  0  0  0  0  0  0  0  0  0  0  0
   -0.5958    1.2333    0.0000 C   0  0  0  0  0  0  0  0  0  0  0  0
   -0.8333    0.3000    0.0000 C   0  0  0  0  0  0  0  0  0  0  0  0
   -0.1500   -0.3875    0.0000 C   0  0  0  0  0  0  0  0  0  0  0  0
    0.7875   -0.1167    0.0000 C   0  0  0  0  0  0  0  0  0  0  0  0
   -2.1333    1.1708    0.0000 C   0  0  0  0  0  0  0  0  0  0  0  0
    1.0500    0.8125    0.0000 O   0  0  0  0  0  0  0  0  0  0  0  0
    1.4667   -0.8042    0.0000 C   0  0  0  0  0  0  0  0  0  0  0  0
   -2.4125   -0.4792    0.0000 C   0  0  0  0  0  0  0  0  0  0  0  0
   -1.4125    1.7458    0.0000 C   0  0  0  0  0  0  0  0  0  0  0  0
   -3.0958    1.3208    0.0000 C   0  0  0  0  0  0  0  0  0  0  0  0
   -0.4125   -1.3167    0.0000 C   0  0  0  0  0  0  0  0  0  0  0  0
   -3.3500   -0.3292    0.0000 C   0  0  0  0  0  0  0  0  0  0  0  0
    0.3667    1.4708    0.0000 C   0  0  0  0  0  0  0  0  0  0  0  0
   -3.6958    0.5708    0.0000 C   0  0  0  0  0  0  0  0  0  0  0  0
    1.2042   -1.7375    0.0000 C   0  0  0  0  0  0  0  0  0  0  0  0
    0.2667   -1.9792    0.0000 C   0  0  0  0  0  0  0  0  0  0  0  0
   -0.3958    2.0625    0.0000 O   0  0  0  0  0  0  0  0  0  0  0  0
    2.4042   -0.6000    0.0000 O   0  0  0  0  0  0  0  0  0  0  0  0
   -3.9708   -1.0792    0.0000 O   0  0  0  0  0  0  0  0  0  0  0  0
   -4.6583    0.7500    0.0000 O   0  0  0  0  0  0  0  0  0  0  0  0
    1.9042   -2.4000    0.0000 O   0  0  0  0  0  0  0  0  0  0  0  0
  2  3  1  0
  3  1  1  0
  4  3  1  0
  5  4  2  0
  6  1  2  0
  7  5  1  0
  8  5  1  0
  9  1  1  0
 10  6  1  0
 11  6  1  0
 12  4  1  0
 13  9  2  0
 14  2  1  0
 15 13  1  0
 16 17  1  0
 17 12  2  0
 18  2  1  0
 19  8  1  0
 20 13  1  0
 21 15  1  0
 22 16  1  0
 10  2  1  0
 11 15  2  0
 14  7  1  0
  8 16  2  0
M  END
>  <ID>  (1872) 


>  <MOLENAME>  (1872) 
HAEMATOXYLIN

>  <therap>  (1872) 
nan

>  <ref>  (1872) 
Bul Soc Chim Fr 1972: 3292

>  <cas#>  (1872) 
517-28-2

>  <source>  (1872) 
Haemotoxylon campechianum

>  <status>  (1872) 
undetermined activity

>  <tradename>  (1872) 
nan

>  <SMILES>  (1872) 
Oc1cc2c(cc1O)C1c3c(OCC1(O)C2)c(O)c(O)cc3

>  <standardized_failed>  (1872) 
False

$$$$

     RDKit          2D

 32 36  0  0  0  0  0  0  0  0999 V2000
    0.0875    0.0458    0.0000 C   0  0  0  0  0  0  0  0  0  0  0  0
   -0.6708   -0.3792    0.0000 C   0  0  0  0  0  0  0  0  0  0  0  0
   -1.4333    0.0458    0.0000 C   0  0  0  0  0  0  0  0  0  0  0  0
    0.8500   -0.3792    0.0000 C   0  0  0  0  0  0  0  0  0  0  0  0
    2.3667   -0.3792    0.0000 C   0  0  0  0  0  0  0  0  0  0  0  0
    0.0875    0.9458    0.0000 C   0  0  0  0  0  0  0  0  0  0  0  0
    1.6042    0.0458    0.0000 C   0  0  0  0  0  0  0  0  0  0  0  0
   -3.7125    1.3625    0.0000 O   0  0  0  0  0  0  0  0  0  0  0  0
   -1.4333    0.9458    0.0000 C   0  0  0  0  0  0  0  0  0  0  0  0
   -2.9500    0.9458    0.0000 C   0  0  0  0  0  0  0  0  0  0  0  0
    2.3667   -1.2792    0.0000 C   0  0  0  0  0  0  0  0  0  0  0  0
    3.1292    0.0458    0.0000 C   0  0  0  0  0  0  0  0  0  0  0  0
   -2.1958   -0.3792    0.0000 C   0  0  0  0  0  0  0  0  0  0  0  0
   -2.9500    0.0458    0.0000 C   0  0  0  0  0  0  0  0  0  0  0  0
   -0.6708    1.3625    0.0000 O   0  0  0  0  0  0  0  0  0  0  0  0
   -4.4708    0.9458    0.0000 C   0  0  0  0  0  0  0  0  0  0  0  0
    3.1292   -1.7000    0.0000 O   0  0  0  0  0  0  0  0  0  0  0  0
   -2.1958    1.3625    0.0000 C   0  0  0  0  0  0  0  0  0  0  0  0
    0.8500   -1.2792    0.0000 C   0  0  0  0  0  0  0  0  0  0  0  0
    3.8875   -0.3792    0.0000 C   0  0  0  0  0  0  0  0  0  0  0  0
   -4.4708    0.0458    0.0000 C   0  0  0  0  0  0  0  0  0  0  0  0
   -3.7125   -0.3792    0.0000 C   0  0  0  0  0  0  0  0  0  0  0  0
    3.8875   -1.2792    0.0000 C   0  0  0  0  0  0  0  0  0  0  0  0
   -0.6708   -1.2792    0.0000 O   0  0  0  0  0  0  0  0  0  0  0  0
    1.6042   -1.7000    0.0000 C   0  0  0  0  0  0  0  0  0  0  0  0
    1.6042    0.9458    0.0000 O   0  0  0  0  0  0  0  0  0  0  0  0
   -5.2500   -0.4042    0.0000 O   0  0  0  0  0  0  0  0  0  0  0  0
   -4.4708    1.8125    0.0000 C   0  0  0  0  0  0  0  0  0  0  0  0
   -5.2208    0.5833    0.0000 C   0  0  0  0  0  0  0  0  0  0  0  0
    3.8792   -2.1667    0.0000 C   0  0  0  0  0  0  0  0  0  0  0  0
    4.5875   -0.9167    0.0000 C   0  0  0  0  0  0  0  0  0  0  0  0
    2.3667    1.3625    0.0000 C   0  0  0  0  0  0  0  0  0  0  0  0
  2  1  1  0
  3  2  1  0
  4  1  1  0
  5  7  2  0
  6  1  2  0
  7  4  1  0
  8 10  1  0
  9 15  1  0
 10 18  1  0
 11 25  2  0
 12  5  1  0
 13  3  2  0
 14 13  1  0
 15  6  1  0
 16  8  1  0
 17 11  1  0
 18  9  2  0
 19  4  2  0
 20 12  2  0
 21 22  1  0
 22 14  1  0
 23 17  1  0
 24  2  2  0
 25 19  1  0
 26  7  1  0
 27 21  1  0
 28 16  1  0
 29 16  1  0
 30 23  1  0
 31 23  1  0
 32 26  1  0
  9  3  1  0
  5 11  1  0
 10 14  2  0
 20 23  1  0
 16 21  1  0
M  END
>  <ID>  (1873) 


>  <MOLENAME>  (1873) 
MUNDULONE

>  <therap>  (1873) 
nan

>  <ref>  (1873) 
Tet Letters 1963, 281

>  <cas#>  (1873) 
481-94-7

>  <source>  (1873) 
Mundulea sericea

>  <status>  (1873) 
undetermined activity

>  <tradename>  (1873) 
nan

>  <SMILES>  (1873) 
COc1c2C=CC(C)(C)Oc2ccc1-c1coc2cc3c(cc2c1=O)CC(O)C(C)(C)O3

>  <standardized_failed>  (1873) 
False

$$$$

     RDKit          2D

 35 40  0  0  0  0  0  0  0  0999 V2000
    6.6292   -3.5625    0.0000 C   0  0  0  0  0  0  0  0  0  0  0  0
    5.7292   -4.0667    0.0000 C   0  0  0  0  0  0  0  0  0  0  0  0
    3.9292   -5.1167    0.0000 C   0  0  0  0  0  0  0  0  0  0  0  0
    3.9292   -4.0667    0.0000 C   0  0  0  0  0  0  0  0  0  0  0  0
    6.6292   -2.5125    0.0000 C   0  0  0  0  0  0  0  0  0  0  0  0
    6.7792   -4.6625    0.0000 O   0  0  0  0  0  0  0  0  0  0  0  0
    5.7292   -5.1167    0.0000 C   0  0  0  0  0  0  0  0  0  0  0  0
    7.6042   -3.8625    0.0000 C   0  0  0  0  0  0  0  0  0  0  0  0
    4.8292   -5.6292    0.0000 C   0  0  0  0  0  0  0  0  0  0  0  0
    4.8292   -3.5625    0.0000 C   0  0  0  0  0  0  0  0  0  0  0  0
    7.6042   -2.1792    0.0000 C   0  0  0  0  0  0  0  0  0  0  0  0
    3.0292   -5.6292    0.0000 C   0  0  0  0  0  0  0  0  0  0  0  0
    4.8292   -2.5125    0.0000 C   0  0  0  0  0  0  0  0  0  0  0  0
    3.0292   -3.5625    0.0000 C   0  0  0  0  0  0  0  0  0  0  0  0
    5.7292   -2.0000    0.0000 C   0  0  0  0  0  0  0  0  0  0  0  0
    8.2042   -3.0167    0.0000 C   0  0  0  0  0  0  0  0  0  0  0  0
    7.6042   -1.3542    0.0000 C   0  0  0  0  0  0  0  0  0  0  0  0
    2.1292   -5.1167    0.0000 C   0  0  0  0  0  0  0  0  0  0  0  0
    2.1292   -4.0667    0.0000 C   0  0  0  0  0  0  0  0  0  0  0  0
    3.9542   -1.9917    0.0000 O   0  0  0  0  0  0  0  0  0  0  0  0
    6.6417   -5.6292    0.0000 O   0  0  0  0  0  0  0  0  0  0  0  0
    3.9542   -0.9667    0.0000 C   0  0  0  0  0  0  0  0  0  0  0  0
    7.8250    0.2833    0.0000 O   0  0  0  0  0  0  0  0  0  0  0  0
    8.2917   -0.6167    0.0000 C   0  0  0  0  0  0  0  0  0  0  0  0
    6.6875   -0.9042    0.0000 C   0  0  0  0  0  0  0  0  0  0  0  0
    4.8292   -6.6167    0.0000 O   0  0  0  0  0  0  0  0  0  0  0  0
    6.8167    0.0833    0.0000 C   0  0  0  0  0  0  0  0  0  0  0  0
    1.2042   -5.6292    0.0000 O   0  0  0  0  0  0  0  0  0  0  0  0
    3.0792   -0.4417    0.0000 O   0  0  0  0  0  0  0  0  0  0  0  0
    5.7667   -3.1542    0.0000 C   0  0  0  0  0  0  0  0  0  0  0  0
    3.9250   -3.1542    0.0000 C   0  0  0  0  0  0  0  0  0  0  0  0
    6.6292   -1.4625    0.0000 C   0  0  0  0  0  0  0  0  0  0  0  0
    2.1292   -6.1417    0.0000 C   0  0  0  0  0  0  0  0  0  0  0  0
    3.9292   -6.1417    0.0000 C   0  0  0  0  0  0  0  0  0  0  0  0
    4.8917   -0.4125    0.0000 C   0  0  0  0  0  0  0  0  0  0  0  0
  2  1  1  0
  3  4  1  0
  4 10  1  0
  5  1  1  0
  1  6  1  1
  7  2  1  0
  8  1  1  0
  9  7  1  0
 10  2  1  0
 11  5  1  0
 12  3  1  0
 13 15  1  0
 14  4  1  0
 15  5  1  0
  8 16  1  1
 11 17  1  0
 18 19  1  0
 19 14  2  0
 13 20  1  6
 21  7  2  0
 22 20  1  0
 23 24  1  0
 24 17  2  0
 25 17  1  0
 26  9  1  0
 27 25  2  0
 28 18  2  0
 29 22  2  0
  2 30  1  1
  4 31  1  1
  5 32  1  6
 33 12  1  0
 34 12  1  0
 35 22  1  0
  8  6  1  0
 11 16  1  6
 13 10  1  0
  3  9  2  0
 27 23  1  0
 12 18  1  0
M  END
>  <ID>  (1874) 


>  <MOLENAME>  (1874) 
ANTHOTHECOL

>  <therap>  (1874) 
nan

>  <ref>  (1874) 
J Chem Soc 1963:983; 1970: 205; Nature 207:1101(1965)

>  <cas#>  (1874) 
10410-83-0

>  <source>  (1874) 
also as 11-ACETOXYCEDRELONE

>  <status>  (1874) 
undetermined activity

>  <tradename>  (1874) 
nan

>  <SMILES>  (1874) 
CC(=O)O[C@@H]1C[C@@]2(C)[C@H](c3cocc3)C[C@H]3O[C@]32[C@]2(C)C(=O)C(O)=C3C(C)(C)C(=O)C=C[C@]3(C)C12

>  <standardized_failed>  (1874) 
False

$$$$

     RDKit          2D

 21 24  0  0  0  0  0  0  0  0999 V2000
    6.6000   -1.9417    0.0000 C   0  0  0  0  0  0  0  0  0  0  0  0
    6.0542   -3.1625    0.0000 C   0  0  0  0  0  0  0  0  0  0  0  0
    6.7750   -2.7500    0.0000 C   0  0  0  0  0  0  0  0  0  0  0  0
    5.7792   -1.8542    0.0000 C   0  0  0  0  0  0  0  0  0  0  0  0
    7.4875   -3.1625    0.0000 C   0  0  0  0  0  0  0  0  0  0  0  0
    7.4875   -3.9875    0.0000 C   0  0  0  0  0  0  0  0  0  0  0  0
    7.0792   -1.2667    0.0000 C   0  0  0  0  0  0  0  0  0  0  0  0
    5.4417   -2.6042    0.0000 C   0  0  0  0  0  0  0  0  0  0  0  0
    6.7750   -4.4000    0.0000 O   0  0  0  0  0  0  0  0  0  0  0  0
    5.4417   -1.1042    0.0000 C   0  0  0  0  0  0  0  0  0  0  0  0
    6.7417   -0.5125    0.0000 C   0  0  0  0  0  0  0  0  0  0  0  0
    5.9250   -0.4292    0.0000 C   0  0  0  0  0  0  0  0  0  0  0  0
    6.0542   -3.9875    0.0000 C   0  0  0  0  0  0  0  0  0  0  0  0
    8.2000   -4.4000    0.0000 C   0  0  0  0  0  0  0  0  0  0  0  0
    8.2000   -2.7500    0.0000 C   0  0  0  0  0  0  0  0  0  0  0  0
    5.3500   -3.5667    0.0000 O   0  0  0  0  0  0  0  0  0  0  0  0
    8.9167   -3.9875    0.0000 C   0  0  0  0  0  0  0  0  0  0  0  0
    8.9167   -3.1625    0.0000 C   0  0  0  0  0  0  0  0  0  0  0  0
    7.2167    0.1708    0.0000 O   0  0  0  0  0  0  0  0  0  0  0  0
    5.5917    0.3333    0.0000 O   0  0  0  0  0  0  0  0  0  0  0  0
    9.6375   -4.4042    0.0000 O   0  0  0  0  0  0  0  0  0  0  0  0
  2  3  1  0
  3  1  1  0
  4  1  1  0
  5  3  1  0
  6  5  2  0
  7  1  2  0
  8  4  1  0
  9  6  1  0
 10  4  2  0
 11  7  1  0
 12 11  2  0
 13  2  1  0
 14  6  1  0
 15  5  1  0
 16  2  1  0
 17 18  1  0
 18 15  2  0
 19 11  1  0
 20 12  1  0
 21 17  1  0
  2  8  1  0
 12 10  1  0
 13  9  1  0
 14 17  2  0
M  END
>  <ID>  (1875) 


>  <MOLENAME>  (1875) 
BRAZILIN

>  <therap>  (1875) 
nan

>  <ref>  (1875) 
J Chem Soc 1928, 1504

>  <cas#>  (1875) 
474-07-7

>  <source>  (1875) 
Haematoxylin campechianum

>  <status>  (1875) 
undetermined activity

>  <tradename>  (1875) 
nan

>  <SMILES>  (1875) 
Oc1cc2c(cc1)C1c3cc(O)c(O)cc3CC1(O)CO2

>  <standardized_failed>  (1875) 
False

$$$$

     RDKit          2D

 27 29  0  0  0  0  0  0  0  0999 V2000
    4.9792   -2.5250    0.0000 C   0  0  0  0  0  0  0  0  0  0  0  0
    4.9792   -3.3542    0.0000 C   0  0  0  0  0  0  0  0  0  0  0  0
    5.5000   -2.0167    0.0000 C   0  0  0  0  0  0  0  0  0  0  0  0
    6.2792   -3.7042    0.0000 C   0  0  0  0  0  0  0  0  0  0  0  0
    7.5875   -4.3750    0.0000 C   0  0  0  0  0  0  0  0  0  0  0  0
    6.6667   -2.9500    0.0000 C   0  0  0  0  0  0  0  0  0  0  0  0
    6.3042   -2.1667    0.0000 O   0  0  0  0  0  0  0  0  0  0  0  0
    5.4792   -3.8417    0.0000 O   0  0  0  0  0  0  0  0  0  0  0  0
    7.9750   -3.6167    0.0000 C   0  0  0  0  0  0  0  0  0  0  0  0
    6.7417   -4.4167    0.0000 C   0  0  0  0  0  0  0  0  0  0  0  0
    4.2542   -3.7667    0.0000 C   0  0  0  0  0  0  0  0  0  0  0  0
    4.2542   -2.1042    0.0000 C   0  0  0  0  0  0  0  0  0  0  0  0
    7.5125   -2.9042    0.0000 C   0  0  0  0  0  0  0  0  0  0  0  0
    3.5417   -3.3542    0.0000 C   0  0  0  0  0  0  0  0  0  0  0  0
    3.5417   -2.5250    0.0000 C   0  0  0  0  0  0  0  0  0  0  0  0
    8.0417   -5.0667    0.0000 C   0  0  0  0  0  0  0  0  0  0  0  0
    5.2542   -1.2292    0.0000 O   0  0  0  0  0  0  0  0  0  0  0  0
    8.8667   -5.0292    0.0000 O   0  0  0  0  0  0  0  0  0  0  0  0
    4.2542   -4.6000    0.0000 Cl  0  0  0  0  0  0  0  0  0  0  0  0
    8.8042   -3.5667    0.0000 O   0  0  0  0  0  0  0  0  0  0  0  0
    2.8250   -2.1125    0.0000 Cl  0  0  0  0  0  0  0  0  0  0  0  0
    2.8250   -3.7667    0.0000 O   0  0  0  0  0  0  0  0  0  0  0  0
    7.6625   -5.8125    0.0000 O   0  0  0  0  0  0  0  0  0  0  0  0
    6.3625   -5.1500    0.0000 C   0  0  0  0  0  0  0  0  0  0  0  0
    4.2542   -1.2792    0.0000 C   0  0  0  0  0  0  0  0  0  0  0  0
    7.8875   -2.1667    0.0000 C   0  0  0  0  0  0  0  0  0  0  0  0
    6.8375   -5.8542    0.0000 C   0  0  0  0  0  0  0  0  0  0  0  0
  2  1  2  0
  3  1  1  0
  4  8  1  0
  5 10  1  0
  6  7  1  0
  7  3  1  0
  8  2  1  0
  9 13  1  0
 10  4  2  0
 11  2  1  0
 12  1  1  0
 13  6  2  0
 14 15  1  0
 15 12  2  0
 16  5  1  0
 17  3  2  0
 18 16  2  0
 19 11  1  0
 20  9  1  0
 21 15  1  0
 22 14  1  0
 23 16  1  0
 24 10  1  0
 25 12  1  0
 26 13  1  0
 27 23  1  0
 11 14  2  0
  6  4  1  0
  5  9  2  0
M  END
>  <ID>  (1876) 


>  <MOLENAME>  (1876) 
LEOIDIN

>  <therap>  (1876) 
nan

>  <ref>  (1876) 
J Chem Soc 1986: 1491

>  <cas#>  (1876) 
105350-54-7

>  <source>  (1876) 
lichen metabolite

>  <status>  (1876) 
undetermined activity

>  <tradename>  (1876) 
nan

>  <SMILES>  (1876) 
COC(=O)c1c(O)c(C)c2OC(=O)c3c(Oc2c1C)c(Cl)c(O)c(Cl)c3C

>  <standardized_failed>  (1876) 
False

$$$$

     RDKit          2D

 34 36  0  0  0  0  0  0  0  0999 V2000
    5.1542   -3.7417    0.0000 C   0  0  0  0  0  0  0  0  0  0  0  0
    3.2375   -4.5292    0.0000 C   0  0  0  0  0  0  0  0  0  0  0  0
    4.9000   -4.6167    0.0000 C   0  0  0  0  0  0  0  0  0  0  0  0
    6.4375   -5.0292    0.0000 C   0  0  0  0  0  0  0  0  0  0  0  0
    3.0750   -3.6292    0.0000 C   0  0  0  0  0  0  0  0  0  0  0  0
    6.0542   -3.5292    0.0000 C   0  0  0  0  0  0  0  0  0  0  0  0
    3.7000   -2.9292    0.0000 C   0  0  0  0  0  0  0  0  0  0  0  0
    4.6167   -2.9917    0.0000 O   0  0  0  0  0  0  0  0  0  0  0  0
    6.7000   -4.1917    0.0000 C   0  0  0  0  0  0  0  0  0  0  0  0
    4.0375   -4.9792    0.0000 O   0  0  0  0  0  0  0  0  0  0  0  0
    5.5375   -5.2792    0.0000 C   0  0  0  0  0  0  0  0  0  0  0  0
    2.5375   -5.0917    0.0000 C   0  0  0  0  0  0  0  0  0  0  0  0
    2.2167   -3.2917    0.0000 C   0  0  0  0  0  0  0  0  0  0  0  0
    7.1000   -5.6917    0.0000 C   0  0  0  0  0  0  0  0  0  0  0  0
    1.6750   -4.7667    0.0000 C   0  0  0  0  0  0  0  0  0  0  0  0
    6.3167   -2.6292    0.0000 C   0  0  0  0  0  0  0  0  0  0  0  0
    1.5167   -3.8917    0.0000 C   0  0  0  0  0  0  0  0  0  0  0  0
    7.4750   -1.5292    0.0000 C   0  0  0  0  0  0  0  0  0  0  0  0
    9.9000   -1.7292    0.0000 C   0  0  0  0  0  0  0  0  0  0  0  0
    8.3750   -1.2792    0.0000 C   0  0  0  0  0  0  0  0  0  0  0  0
    9.0167   -1.9417    0.0000 C   0  0  0  0  0  0  0  0  0  0  0  0
    3.3750   -2.0667    0.0000 O   0  0  0  0  0  0  0  0  0  0  0  0
    2.7000   -6.0292    0.0000 C   0  0  0  0  0  0  0  0  0  0  0  0
    7.2167   -2.3917    0.0000 O   0  0  0  0  0  0  0  0  0  0  0  0
    7.9750   -5.4542    0.0000 O   0  0  0  0  0  0  0  0  0  0  0  0
    6.8375   -0.8667    0.0000 O   0  0  0  0  0  0  0  0  0  0  0  0
   10.5375   -2.3917    0.0000 O   0  0  0  0  0  0  0  0  0  0  0  0
    7.6375   -3.9792    0.0000 O   0  0  0  0  0  0  0  0  0  0  0  0
    1.9750   -6.6292    0.0000 O   0  0  0  0  0  0  0  0  0  0  0  0
    6.8542   -6.5917    0.0000 O   0  0  0  0  0  0  0  0  0  0  0  0
    0.9375   -5.3292    0.0000 O   0  0  0  0  0  0  0  0  0  0  0  0
    5.3000   -6.1792    0.0000 C   0  0  0  0  0  0  0  0  0  0  0  0
   10.1542   -0.8667    0.0000 O   0  0  0  0  0  0  0  0  0  0  0  0
    2.0542   -2.3667    0.0000 C   0  0  0  0  0  0  0  0  0  0  0  0
  2 10  1  0
  3  1  1  0
  4  9  2  0
  5  7  1  0
  6  1  2  0
  7  8  1  0
  8  1  1  0
  9  6  1  0
 10  3  1  0
 11  3  2  0
 12  2  2  0
 13  5  2  0
 14  4  1  0
 15 12  1  0
 16  6  1  0
 17 13  1  0
 18 24  1  0
 19 21  1  0
 20 18  1  0
 21 20  2  0
 22  7  2  0
 23 12  1  0
 24 16  1  0
 25 14  2  0
 26 18  2  0
 27 19  2  0
 28  9  1  0
 29 23  2  0
 30 14  1  0
 31 15  1  0
 32 11  1  0
 33 19  1  0
 34 13  1  0
 11  4  1  0
  2  5  1  0
 15 17  2  0
M  END
>  <ID>  (1877) 


>  <MOLENAME>  (1877) 
FUMARPROTOCETRARIC ACID

>  <therap>  (1877) 
nan

>  <ref>  (1877) 
Chem Ber 67: 411, 766 (1934)

>  <cas#>  (1877) 
489-50-9

>  <source>  (1877) 
Cetraria islandica

>  <status>  (1877) 
undetermined activity

>  <tradename>  (1877) 
nan

>  <SMILES>  (1877) 
Cc1c2C(=O)Oc3c(COC(=O)/C=C/C(=O)O)c(O)c(C(=O)O)c(C)c3Oc2c(C=O)c(O)c1

>  <standardized_failed>  (1877) 
False

$$$$

     RDKit          2D

 23 24  0  0  0  0  0  0  0  0999 V2000
    5.0250   -3.9375    0.0000 C   0  0  0  0  0  0  0  0  0  0  0  0
    5.7417   -3.5125    0.0000 C   0  0  0  0  0  0  0  0  0  0  0  0
    8.6167   -2.6792    0.0000 C   0  0  0  0  0  0  0  0  0  0  0  0
    5.0250   -4.7667    0.0000 C   0  0  0  0  0  0  0  0  0  0  0  0
    7.9042   -2.2667    0.0000 C   0  0  0  0  0  0  0  0  0  0  0  0
    4.3125   -3.5250    0.0000 C   0  0  0  0  0  0  0  0  0  0  0  0
    8.6167   -3.5042    0.0000 C   0  0  0  0  0  0  0  0  0  0  0  0
    9.3375   -2.2542    0.0000 C   0  0  0  0  0  0  0  0  0  0  0  0
    6.4667   -3.9167    0.0000 O   0  0  0  0  0  0  0  0  0  0  0  0
    7.1875   -3.5042    0.0000 C   0  0  0  0  0  0  0  0  0  0  0  0
    7.1875   -2.6792    0.0000 C   0  0  0  0  0  0  0  0  0  0  0  0
    4.3125   -5.1792    0.0000 C   0  0  0  0  0  0  0  0  0  0  0  0
    7.9042   -3.9167    0.0000 C   0  0  0  0  0  0  0  0  0  0  0  0
    3.5917   -3.9375    0.0000 C   0  0  0  0  0  0  0  0  0  0  0  0
    5.7292   -2.6792    0.0000 O   0  0  0  0  0  0  0  0  0  0  0  0
    3.5917   -4.7667    0.0000 C   0  0  0  0  0  0  0  0  0  0  0  0
    9.3250   -1.4250    0.0000 O   0  0  0  0  0  0  0  0  0  0  0  0
    5.7417   -5.1917    0.0000 O   0  0  0  0  0  0  0  0  0  0  0  0
    7.9042   -1.4417    0.0000 O   0  0  0  0  0  0  0  0  0  0  0  0
   10.0625   -2.6625    0.0000 O   0  0  0  0  0  0  0  0  0  0  0  0
    2.8750   -5.1875    0.0000 O   0  0  0  0  0  0  0  0  0  0  0  0
    4.3125   -2.7000    0.0000 C   0  0  0  0  0  0  0  0  0  0  0  0
    9.3375   -3.9292    0.0000 C   0  0  0  0  0  0  0  0  0  0  0  0
  2  1  1  0
  3  7  2  0
  4  1  2  0
  5 11  2  0
  6  1  1  0
  7 13  1  0
  8  3  1  0
  9  2  1  0
 10  9  1  0
 11 10  1  0
 12  4  1  0
 13 10  2  0
 14  6  2  0
 15  2  2  0
 16 14  1  0
 17  8  2  0
 18  4  1  0
 19  5  1  0
 20  8  1  0
 21 16  1  0
 22  6  1  0
 23  7  1  0
 12 16  2  0
  5  3  1  0
M  END
>  <ID>  (1878) 


>  <MOLENAME>  (1878) 
LECANORIC ACID

>  <therap>  (1878) 
nan

>  <ref>  (1878) 
Monatsh Chem 61:147 (1932)

>  <cas#>  (1878) 
480-56-8

>  <source>  (1878) 
Common constituent of lichens

>  <status>  (1878) 
undetermined activity

>  <tradename>  (1878) 
nan

>  <SMILES>  (1878) 
Cc1c(C(=O)O)c(O)cc(OC(=O)c2c(O)cc(O)cc2C)c1

>  <standardized_failed>  (1878) 
False

$$$$

     RDKit          2D

 19 20  0  0  0  0  0  0  0  0999 V2000
   -3.9583   -0.2167    0.0000 C   0  0  0  0  0  0  0  0  0  0  0  0
   -1.6708   -0.2167    0.0000 C   0  0  0  0  0  0  0  0  0  0  0  0
   -2.8125   -0.8792    0.0000 C   0  0  0  0  0  0  0  0  0  0  0  0
   -1.6708    1.1000    0.0000 C   0  0  0  0  0  0  0  0  0  0  0  0
   -2.8125    1.7625    0.0000 C   0  0  0  0  0  0  0  0  0  0  0  0
   -3.9583    1.1000    0.0000 C   0  0  0  0  0  0  0  0  0  0  0  0
   -0.5125   -0.9042    0.0000 C   0  0  0  0  0  0  0  0  0  0  0  0
    0.6500   -0.2500    0.0000 C   0  0  0  0  0  0  0  0  0  0  0  0
   -5.1125    1.7625    0.0000 O   0  0  0  0  0  0  0  0  0  0  0  0
    1.7875   -0.9042    0.0000 C   0  0  0  0  0  0  0  0  0  0  0  0
   -2.8125    3.0833    0.0000 O   0  0  0  0  0  0  0  0  0  0  0  0
   -2.8125   -2.2000    0.0000 O   0  0  0  0  0  0  0  0  0  0  0  0
    2.9292   -0.2500    0.0000 C   0  0  0  0  0  0  0  0  0  0  0  0
   -1.6708   -2.8542    0.0000 C   0  0  0  0  0  0  0  0  0  0  0  0
    2.9292    1.0708    0.0000 C   0  0  0  0  0  0  0  0  0  0  0  0
    4.0667   -0.9042    0.0000 C   0  0  0  0  0  0  0  0  0  0  0  0
    4.0667    1.7333    0.0000 C   0  0  0  0  0  0  0  0  0  0  0  0
    5.2292   -0.2500    0.0000 C   0  0  0  0  0  0  0  0  0  0  0  0
    5.2292    1.0708    0.0000 C   0  0  0  0  0  0  0  0  0  0  0  0
  2  3  1  0
  3  1  2  0
  4  5  2  0
  5  6  1  0
  6  1  1  0
  7  2  2  0
  8  7  1  0
  9  6  2  0
 10  8  2  0
 11  5  1  0
 12  3  1  0
 13 10  1  0
 14 12  1  0
 15 13  2  0
 16 13  1  0
 17 15  1  0
 18 16  2  0
 19 18  1  0
  2  4  1  0
 17 19  2  0
M  END
>  <ID>  (1879) 


>  <MOLENAME>  (1879) 
OBTUSAQUINONE

>  <therap>  (1879) 
nan

>  <ref>  (1879) 
Phytochemistry 17: 1395 (1978)

>  <cas#>  (1879) 
21105-15-7

>  <source>  (1879) 
Dalbergia retusa

>  <status>  (1879) 
undetermined activity

>  <tradename>  (1879) 
nan

>  <SMILES>  (1879) 
COC1=CC(=O)C(O)=C/C1=C\C=C\c1ccccc1

>  <standardized_failed>  (1879) 
False

$$$$

     RDKit          2D

 13 13  0  0  0  0  0  0  0  0999 V2000
    3.8250   -1.7042    0.0000 C   0  0  0  0  0  0  0  0  0  0  0  0
    4.5417   -2.1167    0.0000 C   0  0  0  0  0  0  0  0  0  0  0  0
    3.1125   -2.1250    0.0000 C   0  0  0  0  0  0  0  0  0  0  0  0
    3.1125   -2.9500    0.0000 C   0  0  0  0  0  0  0  0  0  0  0  0
    4.5417   -2.9500    0.0000 C   0  0  0  0  0  0  0  0  0  0  0  0
    3.8250   -3.3625    0.0000 C   0  0  0  0  0  0  0  0  0  0  0  0
    3.8167   -0.8792    0.0000 O   0  0  0  0  0  0  0  0  0  0  0  0
    2.4000   -1.7125    0.0000 O   0  0  0  0  0  0  0  0  0  0  0  0
    5.2542   -1.7042    0.0000 O   0  0  0  0  0  0  0  0  0  0  0  0
    3.8250   -4.1875    0.0000 O   0  0  0  0  0  0  0  0  0  0  0  0
    4.5375   -0.4667    0.0000 C   0  0  0  0  0  0  0  0  0  0  0  0
    5.9667   -2.1125    0.0000 C   0  0  0  0  0  0  0  0  0  0  0  0
    2.4000   -0.8875    0.0000 C   0  0  0  0  0  0  0  0  0  0  0  0
  2  1  2  0
  3  1  1  0
  4  3  2  0
  5  2  1  0
  6  4  1  0
  7  1  1  0
  8  3  1  0
  9  2  1  0
 10  6  1  0
 11  7  1  0
 12  9  1  0
 13  8  1  0
  6  5  2  0
M  END
>  <ID>  (1880) 


>  <MOLENAME>  (1880) 
ANTIAROL

>  <therap>  (1880) 
nan

>  <ref>  (1880) 
Helv Chim Acta 45: 1183, 1206, 2285 (1992)

>  <cas#>  (1880) 
642-71-7

>  <source>  (1880) 
Antiaris toxicaria

>  <status>  (1880) 
undetermined activity

>  <tradename>  (1880) 
nan

>  <SMILES>  (1880) 
COc1c(OC)c(OC)cc(O)c1

>  <standardized_failed>  (1880) 
False

$$$$

     RDKit          2D

 41 46  0  0  0  0  0  0  0  0999 V2000
    7.1000   -1.1792    0.0000 C   0  0  0  0  0  0  0  0  0  0  0  0
    6.3000   -1.1792    0.0000 C   0  0  0  0  0  0  0  0  0  0  0  0
    6.0000   -2.5875    0.0000 C   0  0  0  0  0  0  0  0  0  0  0  0
    5.9000   -0.4875    0.0000 C   0  0  0  0  0  0  0  0  0  0  0  0
    5.8167   -1.8042    0.0000 C   0  0  0  0  0  0  0  0  0  0  0  0
    4.7000   -1.1792    0.0000 O   0  0  0  0  0  0  0  0  0  0  0  0
    4.6625   -2.8875    0.0000 O   0  0  0  0  0  0  0  0  0  0  0  0
    3.9000   -1.1792    0.0000 C   0  0  0  0  0  0  0  0  0  0  0  0
    4.0625   -3.4000    0.0000 C   0  0  0  0  0  0  0  0  0  0  0  0
    7.6000   -1.8042    0.0000 C   0  0  0  0  0  0  0  0  0  0  0  0
    5.1000   -0.4875    0.0000 C   0  0  0  0  0  0  0  0  0  0  0  0
    3.5000   -0.4875    0.0000 C   0  0  0  0  0  0  0  0  0  0  0  0
    4.2375   -4.1792    0.0000 C   0  0  0  0  0  0  0  0  0  0  0  0
    7.4167   -2.5875    0.0000 C   0  0  0  0  0  0  0  0  0  0  0  0
    5.4167   -3.1292    0.0000 C   0  0  0  0  0  0  0  0  0  0  0  0
    6.7000   -2.9167    0.0000 C   0  0  0  0  0  0  0  0  0  0  0  0
    7.5000   -0.4875    0.0000 C   0  0  0  0  0  0  0  0  0  0  0  0
    6.3000    0.2000    0.0000 C   0  0  0  0  0  0  0  0  0  0  0  0
    3.9000    0.2000    0.0000 C   0  0  0  0  0  0  0  0  0  0  0  0
    4.9792   -4.4167    0.0000 C   0  0  0  0  0  0  0  0  0  0  0  0
    2.7000   -0.4875    0.0000 C   0  0  0  0  0  0  0  0  0  0  0  0
    3.6625   -4.7167    0.0000 C   0  0  0  0  0  0  0  0  0  0  0  0
    7.1000    0.2000    0.0000 C   0  0  0  0  0  0  0  0  0  0  0  0
    4.7000    0.2000    0.0000 C   0  0  0  0  0  0  0  0  0  0  0  0
    5.5792   -3.9042    0.0000 C   0  0  0  0  0  0  0  0  0  0  0  0
    3.3000   -3.1542    0.0000 C   0  0  0  0  0  0  0  0  0  0  0  0
    3.5000   -1.9000    0.0000 C   0  0  0  0  0  0  0  0  0  0  0  0
    2.9167   -4.4792    0.0000 C   0  0  0  0  0  0  0  0  0  0  0  0
    2.3000   -1.1792    0.0000 C   0  0  0  0  0  0  0  0  0  0  0  0
    2.7000   -1.9000    0.0000 C   0  0  0  0  0  0  0  0  0  0  0  0
    2.7167   -3.7000    0.0000 C   0  0  0  0  0  0  0  0  0  0  0  0
    8.4000   -1.6292    0.0000 O   0  0  0  0  0  0  0  0  0  0  0  0
    8.0375   -3.1000    0.0000 O   0  0  0  0  0  0  0  0  0  0  0  0
    8.3000   -0.4792    0.0000 O   0  0  0  0  0  0  0  0  0  0  0  0
    3.8167   -5.5292    0.0000 O   0  0  0  0  0  0  0  0  0  0  0  0
    2.2792    0.2000    0.0000 O   0  0  0  0  0  0  0  0  0  0  0  0
    7.5000    0.9208    0.0000 O   0  0  0  0  0  0  0  0  0  0  0  0
    5.1000    0.9208    0.0000 O   0  0  0  0  0  0  0  0  0  0  0  0
    6.3625   -4.1500    0.0000 O   0  0  0  0  0  0  0  0  0  0  0  0
    1.9375   -3.4292    0.0000 O   0  0  0  0  0  0  0  0  0  0  0  0
    2.3000   -2.6167    0.0000 O   0  0  0  0  0  0  0  0  0  0  0  0
  2  1  2  0
  3  5  2  0
  4  2  1  0
  5  2  1  0
 11  6  1  1
 15  7  1  6
  8  6  1  0
  9  7  1  0
 10  1  1  0
 11  4  1  0
 12 19  1  0
 13 20  1  0
 14 10  1  0
 15  3  1  0
 16 14  2  0
 17  1  1  0
 18 23  1  0
 19 24  1  0
 20 25  1  0
 21 12  2  0
 22 13  2  0
 23 17  2  0
 24 11  1  0
 25 15  1  0
 26  9  2  0
 27  8  2  0
 28 22  1  0
 29 21  1  0
 30 27  1  0
 31 26  1  0
 32 10  2  0
 33 14  1  0
 34 17  1  0
 35 22  1  0
 36 21  1  0
 37 23  1  0
 24 38  1  6
 25 39  1  6
 40 31  1  0
 41 30  1  0
 18  4  2  0
 16  3  1  0
 12  8  1  0
 13  9  1  0
 29 30  2  0
 28 31  2  0
M  END
>  <ID>  (1881) 


>  <MOLENAME>  (1881) 
THEAFLAVIN

>  <therap>  (1881) 
antioxidant

>  <ref>  (1881) 
Tet Lett 1966:1193, 4024; Tetrahedron 29:125 (1973)

>  <cas#>  (1881) 
4670-05-7

>  <source>  (1881) 
pigment in black tea

>  <status>  (1881) 
experimental

>  <tradename>  (1881) 
nan

>  <SMILES>  (1881) 
O=c1c(O)cc([C@H]2Oc3cc(O)cc(O)c3C[C@H]2O)cc2c1c(O)c(O)cc2[C@H]1Oc2cc(O)cc(O)c2C[C@@H]1O

>  <standardized_failed>  (1881) 
False

$$$$

     RDKit          2D

 44 48  0  0  0  0  0  0  0  0999 V2000
    6.1042   -4.4042    0.0000 C   0  0  0  0  0  0  0  0  0  0  0  0
    3.2375   -5.2417    0.0000 C   0  0  0  0  0  0  0  0  0  0  0  0
    6.8167   -3.9917    0.0000 C   0  0  0  0  0  0  0  0  0  0  0  0
    5.3917   -3.9917    0.0000 C   0  0  0  0  0  0  0  0  0  0  0  0
    6.1042   -5.2292    0.0000 C   0  0  0  0  0  0  0  0  0  0  0  0
    2.5250   -5.6542    0.0000 C   0  0  0  0  0  0  0  0  0  0  0  0
    2.5375   -1.5292    0.0000 C   0  0  0  0  0  0  0  0  0  0  0  0
    7.5375   -5.2292    0.0000 C   0  0  0  0  0  0  0  0  0  0  0  0
    7.5375   -4.4042    0.0000 C   0  0  0  0  0  0  0  0  0  0  0  0
    1.8042   -5.2500    0.0000 C   0  0  0  0  0  0  0  0  0  0  0  0
    2.5375   -0.7042    0.0000 C   0  0  0  0  0  0  0  0  0  0  0  0
    6.8167   -5.6417    0.0000 O   0  0  0  0  0  0  0  0  0  0  0  0
    4.6792   -5.2292    0.0000 C   0  0  0  0  0  0  0  0  0  0  0  0
    4.6792   -4.4042    0.0000 C   0  0  0  0  0  0  0  0  0  0  0  0
    3.2500   -1.9417    0.0000 C   0  0  0  0  0  0  0  0  0  0  0  0
    3.2292   -4.4167    0.0000 O   0  0  0  0  0  0  0  0  0  0  0  0
    1.7917   -4.4167    0.0000 C   0  0  0  0  0  0  0  0  0  0  0  0
    3.9667   -1.5292    0.0000 O   0  0  0  0  0  0  0  0  0  0  0  0
    2.5167   -4.0042    0.0000 C   0  0  0  0  0  0  0  0  0  0  0  0
    3.2500   -0.2917    0.0000 C   0  0  0  0  0  0  0  0  0  0  0  0
    5.3917   -5.6417    0.0000 C   0  0  0  0  0  0  0  0  0  0  0  0
    3.9542   -5.6542    0.0000 O   0  0  0  0  0  0  0  0  0  0  0  0
    3.9667   -0.7042    0.0000 C   0  0  0  0  0  0  0  0  0  0  0  0
    3.2417   -2.7667    0.0000 O   0  0  0  0  0  0  0  0  0  0  0  0
    8.2500   -5.6417    0.0000 C   0  0  0  0  0  0  0  0  0  0  0  0
    6.8167   -3.1667    0.0000 O   0  0  0  0  0  0  0  0  0  0  0  0
    2.5292   -3.1792    0.0000 C   0  0  0  0  0  0  0  0  0  0  0  0
    5.3917   -3.1667    0.0000 O   0  0  0  0  0  0  0  0  0  0  0  0
    2.5292   -6.4792    0.0000 O   0  0  0  0  0  0  0  0  0  0  0  0
    1.8167   -1.9542    0.0000 O   0  0  0  0  0  0  0  0  0  0  0  0
    8.9667   -5.2292    0.0000 C   0  0  0  0  0  0  0  0  0  0  0  0
    8.2500   -6.4750    0.0000 C   0  0  0  0  0  0  0  0  0  0  0  0
    1.8167   -0.2792    0.0000 O   0  0  0  0  0  0  0  0  0  0  0  0
    1.0875   -5.6750    0.0000 O   0  0  0  0  0  0  0  0  0  0  0  0
    1.0625   -4.0042    0.0000 O   0  0  0  0  0  0  0  0  0  0  0  0
    3.9625   -3.9917    0.0000 O   0  0  0  0  0  0  0  0  0  0  0  0
    3.2417    0.5333    0.0000 O   0  0  0  0  0  0  0  0  0  0  0  0
    9.6792   -6.4750    0.0000 C   0  0  0  0  0  0  0  0  0  0  0  0
    8.9625   -6.8875    0.0000 C   0  0  0  0  0  0  0  0  0  0  0  0
    9.6792   -5.6417    0.0000 C   0  0  0  0  0  0  0  0  0  0  0  0
   10.4042   -6.8917    0.0000 O   0  0  0  0  0  0  0  0  0  0  0  0
    4.6875   -0.2792    0.0000 C   0  0  0  0  0  0  0  0  0  0  0  0
    3.9625   -3.1667    0.0000 C   0  0  0  0  0  0  0  0  0  0  0  0
   10.4125   -7.7250    0.0000 C   0  0  0  0  0  0  0  0  0  0  0  0
  2 22  1  6
  3  1  1  0
  4  1  2  0
  5  1  1  0
  6  2  1  0
  7 15  1  0
  8 12  1  0
  9  3  1  0
 10  6  1  0
 11  7  1  0
 12  5  1  0
 13 21  1  0
 14  4  1  0
 15 24  1  1
 16  2  1  0
 17 19  1  0
 18 15  1  0
 19 16  1  0
 20 23  1  0
 21  5  2  0
 22 13  1  0
 23 18  1  0
 24 27  1  0
 25  8  1  0
 26  3  2  0
 19 27  1  1
 28  4  1  0
  6 29  1  6
  7 30  1  6
 31 25  2  0
 32 25  1  0
 11 33  1  6
 10 34  1  1
 17 35  1  6
 36 14  1  0
 20 37  1  1
 38 39  1  0
 39 32  2  0
 40 31  1  0
 41 38  1  0
 23 42  1  6
 43 36  1  0
 44 41  1  0
 13 14  2  0
  8  9  2  0
 38 40  2  0
 10 17  1  0
 11 20  1  0
M  END
>  <ID>  (1882) 


>  <MOLENAME>  (1882) 
PECTOLINARIN

>  <therap>  (1882) 
nan

>  <ref>  (1882) 
Phytochemistry 12:421 (1973); Chem Pharm Bull 26:2036 (1978)

>  <cas#>  (1882) 
28978-02-1 

>  <source>  (1882) 
Cirsium and Linaria spp, Kickxia elatine, Duranta plumieri

>  <status>  (1882) 
undetermined activity

>  <tradename>  (1882) 
nan

>  <SMILES>  (1882) 
COc1ccc(-c2cc(=O)c3c(O)c(OC)c(O[C@H]4O[C@H](CO[C@@H]5O[C@@H](C)[C@H](O)[C@@H](O)[C@H]5O)[C@@H](O)[C@H](O)[C@H]4O)cc3o2)cc1

>  <standardized_failed>  (1882) 
False

$$$$

     RDKit          2D

 24 26  0  0  0  0  0  0  0  0999 V2000
    4.6667   -3.8417    0.0000 C   0  0  0  0  0  0  0  0  0  0  0  0
    5.3792   -3.4292    0.0000 C   0  0  0  0  0  0  0  0  0  0  0  0
    4.6667   -4.6667    0.0000 C   0  0  0  0  0  0  0  0  0  0  0  0
    6.1042   -3.8417    0.0000 C   0  0  0  0  0  0  0  0  0  0  0  0
    5.3792   -5.0792    0.0000 O   0  0  0  0  0  0  0  0  0  0  0  0
    3.9542   -3.4292    0.0000 C   0  0  0  0  0  0  0  0  0  0  0  0
    3.9542   -5.0792    0.0000 C   0  0  0  0  0  0  0  0  0  0  0  0
    6.1042   -4.6667    0.0000 C   0  0  0  0  0  0  0  0  0  0  0  0
    3.2417   -4.6667    0.0000 C   0  0  0  0  0  0  0  0  0  0  0  0
    3.2417   -3.8417    0.0000 C   0  0  0  0  0  0  0  0  0  0  0  0
    6.8167   -3.4292    0.0000 C   0  0  0  0  0  0  0  0  0  0  0  0
    5.3792   -2.6042    0.0000 O   0  0  0  0  0  0  0  0  0  0  0  0
    7.5292   -3.8417    0.0000 C   0  0  0  0  0  0  0  0  0  0  0  0
    6.8167   -2.5917    0.0000 C   0  0  0  0  0  0  0  0  0  0  0  0
    3.9542   -2.6042    0.0000 O   0  0  0  0  0  0  0  0  0  0  0  0
    3.9542   -5.9042    0.0000 O   0  0  0  0  0  0  0  0  0  0  0  0
    2.5167   -5.0917    0.0000 O   0  0  0  0  0  0  0  0  0  0  0  0
    8.2417   -2.5917    0.0000 C   0  0  0  0  0  0  0  0  0  0  0  0
    8.2417   -3.4292    0.0000 C   0  0  0  0  0  0  0  0  0  0  0  0
    7.5292   -2.1792    0.0000 C   0  0  0  0  0  0  0  0  0  0  0  0
    8.9667   -2.1792    0.0000 O   0  0  0  0  0  0  0  0  0  0  0  0
    3.2417   -6.3167    0.0000 C   0  0  0  0  0  0  0  0  0  0  0  0
    1.8000   -4.6792    0.0000 C   0  0  0  0  0  0  0  0  0  0  0  0
    8.9792   -1.3417    0.0000 C   0  0  0  0  0  0  0  0  0  0  0  0
  2  1  1  0
  3  1  2  0
  4  2  1  0
  5  3  1  0
  6  1  1  0
  7  3  1  0
  8  5  1  0
  9 10  1  0
 10  6  2  0
 11  4  1  0
 12  2  2  0
 13 11  2  0
 14 11  1  0
 15  6  1  0
 16  7  1  0
 17  9  1  0
 18 20  1  0
 19 13  1  0
 20 14  2  0
 21 18  1  0
 22 16  1  0
 23 17  1  0
 24 21  1  0
  9  7  2  0
  8  4  2  0
 18 19  2  0
M  END
>  <ID>  (1883) 


>  <MOLENAME>  (1883) 
ISOTECTORIGENIN. 7-METHYL ETHER

>  <therap>  (1883) 
nan

>  <ref>  (1883) 
nan

>  <cas#>  (1883) 
nan

>  <source>  (1883) 
Dalbergia spp

>  <status>  (1883) 
undetermined activity

>  <tradename>  (1883) 
nan

>  <SMILES>  (1883) 
COc1ccc(-c2coc3c(c(O)cc(OC)c3OC)c2=O)cc1

>  <standardized_failed>  (1883) 
False

$$$$

     RDKit          2D

 14 14  0  0  0  0  0  0  0  0999 V2000
    3.6250   -2.7292    0.0000 C   0  0  0  0  0  0  0  0  0  0  0  0
    3.6250   -3.5500    0.0000 C   0  0  0  0  0  0  0  0  0  0  0  0
    2.9000   -2.3167    0.0000 C   0  0  0  0  0  0  0  0  0  0  0  0
    4.3417   -2.2875    0.0000 C   0  0  0  0  0  0  0  0  0  0  0  0
    2.9000   -3.9542    0.0000 C   0  0  0  0  0  0  0  0  0  0  0  0
    2.1792   -2.7292    0.0000 C   0  0  0  0  0  0  0  0  0  0  0  0
    2.1792   -3.5500    0.0000 C   0  0  0  0  0  0  0  0  0  0  0  0
    5.0417   -2.7042    0.0000 O   0  0  0  0  0  0  0  0  0  0  0  0
    4.3417   -3.9542    0.0000 O   0  0  0  0  0  0  0  0  0  0  0  0
    4.3250   -1.4917    0.0000 O   0  0  0  0  0  0  0  0  0  0  0  0
    1.4417   -3.9542    0.0000 O   0  0  0  0  0  0  0  0  0  0  0  0
    2.9000   -1.4917    0.0000 C   0  0  0  0  0  0  0  0  0  0  0  0
    3.6042   -1.0792    0.0000 C   0  0  0  0  0  0  0  0  0  0  0  0
    3.6042   -0.2542    0.0000 C   0  0  0  0  0  0  0  0  0  0  0  0
  2  1  2  0
  3  1  1  0
  4  1  1  0
  5  2  1  0
  6  3  2  0
  7  6  1  0
  8  4  2  0
  9  2  1  0
 10  4  1  0
 11  7  1  0
 12  3  1  0
 13 10  1  0
 14 13  1  0
  7  5  2  0
M  END
>  <ID>  (1884) 


>  <MOLENAME>  (1884) 
ORSELLINIC ACID. ETHYL ESTER

>  <therap>  (1884) 
nan

>  <ref>  (1884) 
J Org Chem 30: 3566 (1965)

>  <cas#>  (1884) 
2524-37-0

>  <source>  (1884) 
Roccella and Lecanora lichens

>  <status>  (1884) 
undetermined activity

>  <tradename>  (1884) 
nan

>  <SMILES>  (1884) 
CCOC(=O)c1c(O)cc(O)cc1C

>  <standardized_failed>  (1884) 
False

$$$$

     RDKit          2D

 22 24  0  0  0  0  0  0  0  0999 V2000
    2.6375    0.5083    0.0000 C   0  0  0  0  0  0  0  0  0  0  0  0
    1.9167    0.0958    0.0000 C   0  0  0  0  0  0  0  0  0  0  0  0
    3.3500    0.0958    0.0000 C   0  0  0  0  0  0  0  0  0  0  0  0
    1.2042    0.5083    0.0000 C   0  0  0  0  0  0  0  0  0  0  0  0
    2.6375    1.3333    0.0000 C   0  0  0  0  0  0  0  0  0  0  0  0
    4.0667    0.5125    0.0000 C   0  0  0  0  0  0  0  0  0  0  0  0
    4.7875    0.0958    0.0000 C   0  0  0  0  0  0  0  0  0  0  0  0
    1.2042    1.3333    0.0000 C   0  0  0  0  0  0  0  0  0  0  0  0
    1.9167    1.7458    0.0000 O   0  0  0  0  0  0  0  0  0  0  0  0
    3.3417   -0.7292    0.0000 C   0  0  0  0  0  0  0  0  0  0  0  0
    0.4917    0.0958    0.0000 C   0  0  0  0  0  0  0  0  0  0  0  0
    0.4917    1.7458    0.0000 C   0  0  0  0  0  0  0  0  0  0  0  0
    4.7875   -0.7292    0.0000 C   0  0  0  0  0  0  0  0  0  0  0  0
    1.9167   -0.7292    0.0000 O   0  0  0  0  0  0  0  0  0  0  0  0
    4.0625   -1.1417    0.0000 C   0  0  0  0  0  0  0  0  0  0  0  0
   -0.2208    1.3333    0.0000 C   0  0  0  0  0  0  0  0  0  0  0  0
    5.5167    0.5083    0.0000 O   0  0  0  0  0  0  0  0  0  0  0  0
    4.0792    1.3458    0.0000 O   0  0  0  0  0  0  0  0  0  0  0  0
   -0.2208    0.5083    0.0000 C   0  0  0  0  0  0  0  0  0  0  0  0
    5.5042   -1.1417    0.0000 O   0  0  0  0  0  0  0  0  0  0  0  0
   -0.9458    1.7583    0.0000 O   0  0  0  0  0  0  0  0  0  0  0  0
    6.2167   -0.7292    0.0000 C   0  0  0  0  0  0  0  0  0  0  0  0
  2  1  1  0
  3  1  1  0
  4  2  1  0
  5  1  2  0
  6  3  2  0
  7  6  1  0
  8  9  1  0
  9  5  1  0
 10  3  1  0
 11  4  2  0
 12  8  2  0
 13 15  1  0
 14  2  2  0
 15 10  2  0
 16 12  1  0
 17  7  1  0
 18  6  1  0
 19 11  1  0
 20 13  1  0
 21 16  1  0
 22 20  1  0
  4  8  1  0
  7 13  2  0
 19 16  2  0
M  END
>  <ID>  (1885) 


>  <MOLENAME>  (1885) 
KOPARIN

>  <therap>  (1885) 
nan

>  <ref>  (1885) 
Aust J Chem 30:1827 (1977) 

>  <cas#>  (1885) 
65048-75-1

>  <source>  (1885) 
Castanospermum australe

>  <status>  (1885) 
undetermined activity

>  <tradename>  (1885) 
nan

>  <SMILES>  (1885) 
COc1c(O)c(O)c(-c2coc3cc(O)ccc3c2=O)cc1

>  <standardized_failed>  (1885) 
False

$$$$

     RDKit          2D

 11 11  0  0  0  0  0  0  0  0999 V2000
    3.1292   -0.2000    0.0000 C   0  0  0  0  0  0  0  0  0  0  0  0
    2.4167   -1.4375    0.0000 N   0  0  0  0  0  0  0  0  0  0  0  0
    2.4167    0.2125    0.0000 C   0  0  0  0  0  0  0  0  0  0  0  0
    4.5542   -1.0250    0.0000 O   0  0  0  0  0  0  0  0  0  0  0  0
    3.1292   -1.0250    0.0000 C   0  0  0  0  0  0  0  0  0  0  0  0
    3.8417   -1.4375    0.0000 C   0  0  0  0  0  0  0  0  0  0  0  0
    1.7042   -0.2042    0.0000 C   0  0  0  0  0  0  0  0  0  0  0  0
    2.4167    1.0333    0.0000 C   0  0  0  0  0  0  0  0  0  0  0  0
    1.7042    1.4458    0.0000 C   0  0  0  0  0  0  0  0  0  0  0  0
    0.9917    0.2083    0.0000 C   0  0  0  0  0  0  0  0  0  0  0  0
    0.9875    1.0333    0.0000 C   0  0  0  0  0  0  0  0  0  0  0  0
  5  2  1  1
  3  1  1  0
  4  6  1  0
  5  1  1  0
  6  5  1  0
  7  3  2  0
  8  3  1  0
  9  8  2  0
 10  7  1  0
 11  9  1  0
 11 10  2  0
M  END
>  <ID>  (1886) 


>  <MOLENAME>  (1886) 
L-PHENYLALANINOL

>  <therap>  (1886) 
antiulcer

>  <ref>  (1886) 
Chem Pharm Bull 40:3113 (1992)

>  <cas#>  (1886) 
3182-95-4

>  <source>  (1886) 
synthetic

>  <status>  (1886) 
experimental

>  <tradename>  (1886) 
nan

>  <SMILES>  (1886) 
N[C@H](CO)Cc1ccccc1

>  <standardized_failed>  (1886) 
False

$$$$

     RDKit          2D

 18 18  0  0  0  0  0  0  0  0999 V2000
   -1.0458   -2.4667    0.0000 C   0  0  0  0  0  0  0  0  0  0  0  0
   -0.2833   -2.1625    0.0000 C   0  0  0  0  0  0  0  0  0  0  0  0
   -1.0375   -3.3750    0.0000 C   0  0  0  0  0  0  0  0  0  0  0  0
    0.3667   -2.6667    0.0000 C   0  0  0  0  0  0  0  0  0  0  0  0
   -1.0458   -1.6417    0.0000 C   0  0  0  0  0  0  0  0  0  0  0  0
   -1.8208   -3.8292    0.0000 O   0  0  0  0  0  0  0  0  0  0  0  0
   -1.7875   -2.6875    0.0000 O   0  0  0  0  0  0  0  0  0  0  0  0
    0.2542   -3.4875    0.0000 O   0  0  0  0  0  0  0  0  0  0  0  0
   -0.1625   -1.3417    0.0000 O   0  0  0  0  0  0  0  0  0  0  0  0
   -1.7625   -1.2292    0.0000 C   0  0  0  0  0  0  0  0  0  0  0  0
   -0.2583   -3.8167    0.0000 O   0  0  0  0  0  0  0  0  0  0  0  0
    1.1375   -2.3667    0.0000 O   0  0  0  0  0  0  0  0  0  0  0  0
   -3.1958   -0.4042    0.0000 C   0  0  0  0  0  0  0  0  0  0  0  0
   -1.7625   -0.4042    0.0000 C   0  0  0  0  0  0  0  0  0  0  0  0
   -2.4833   -1.6417    0.0000 C   0  0  0  0  0  0  0  0  0  0  0  0
   -2.4833    0.0083    0.0000 C   0  0  0  0  0  0  0  0  0  0  0  0
   -3.1958   -1.2292    0.0000 C   0  0  0  0  0  0  0  0  0  0  0  0
   -3.9083    0.0083    0.0000 O   0  0  0  0  0  0  0  0  0  0  0  0
  2  1  1  0
  3  1  1  0
  4  2  1  0
  1  5  1  0
  6  3  2  0
  1  7  1  1
  8  4  2  0
  2  9  1  1
 10  5  1  0
 11  3  1  0
 12  4  1  0
 13 17  1  0
 14 10  2  0
 15 10  1  0
 16 14  1  0
 17 15  2  0
 18 13  1  0
 16 13  2  0
M  END
>  <ID>  (1887) 


>  <MOLENAME>  (1887) 
PISCIDIC ACID

>  <therap>  (1887) 
nan

>  <ref>  (1887) 
J Chem Soc 1954: 3981; Acta Chem Scand 18: 1979 (1964); 20: 1431 (1966); Phytochemistry 18: 815 (1971)

>  <cas#>  (1887) 
35388-57-9

>  <source>  (1887) 
Piscidia piscipula

>  <status>  (1887) 
undetermined activity

>  <tradename>  (1887) 
nan

>  <SMILES>  (1887) 
O=C(O)[C@H](O)[C@@](O)(Cc1ccc(O)cc1)C(=O)O

>  <standardized_failed>  (1887) 
False

$$$$

     RDKit          2D

 60 68  0  0  0  0  0  0  0  0999 V2000
    5.1125   -3.4042    0.0000 C   0  0  0  0  0  0  0  0  0  0  0  0
    3.7542   -3.4167    0.0000 C   0  0  0  0  0  0  0  0  0  0  0  0
    3.7375   -5.2792    0.0000 C   0  0  0  0  0  0  0  0  0  0  0  0
    2.3917   -3.6167    0.0000 C   0  0  0  0  0  0  0  0  0  0  0  0
    6.1417   -2.3292    0.0000 C   0  0  0  0  0  0  0  0  0  0  0  0
    3.2542   -4.3417    0.0000 C   0  0  0  0  0  0  0  0  0  0  0  0
    2.7792   -8.3125    0.0000 C   0  0  0  0  0  0  0  0  0  0  0  0
    5.7292   -1.3625    0.0000 C   0  0  0  0  0  0  0  0  0  0  0  0
    5.0792   -4.4667    0.0000 C   0  0  0  0  0  0  0  0  0  0  0  0
    1.8292   -5.1667    0.0000 C   0  0  0  0  0  0  0  0  0  0  0  0
    1.9792   -8.5250    0.0000 O   0  0  0  0  0  0  0  0  0  0  0  0
    2.8292   -5.9667    0.0000 C   0  0  0  0  0  0  0  0  0  0  0  0
    4.6792   -2.2042    0.0000 C   0  0  0  0  0  0  0  0  0  0  0  0
    1.8292   -4.3417    0.0000 C   0  0  0  0  0  0  0  0  0  0  0  0
    2.9917   -7.5167    0.0000 C   0  0  0  0  0  0  0  0  0  0  0  0
    2.7750   -9.1375    0.0000 C   0  0  0  0  0  0  0  0  0  0  0  0
    4.6750   -2.7167    0.0000 O   0  0  0  0  0  0  0  0  0  0  0  0
    6.3542   -0.5250    0.0000 C   0  0  0  0  0  0  0  0  0  0  0  0
    4.1125   -2.4375    0.0000 O   0  0  0  0  0  0  0  0  0  0  0  0
    3.3375   -2.3292    0.0000 C   0  0  0  0  0  0  0  0  0  0  0  0
    5.2042   -2.4375    0.0000 O   0  0  0  0  0  0  0  0  0  0  0  0
    2.8375   -5.0542    0.0000 C   0  0  0  0  0  0  0  0  0  0  0  0
    2.4542   -6.7792    0.0000 O   0  0  0  0  0  0  0  0  0  0  0  0
    6.3125   -4.8250    0.0000 O   0  0  0  0  0  0  0  0  0  0  0  0
    4.2667   -1.4042    0.0000 C   0  0  0  0  0  0  0  0  0  0  0  0
    7.1792   -2.4625    0.0000 C   0  0  0  0  0  0  0  0  0  0  0  0
    7.4042   -0.6542    0.0000 O   0  0  0  0  0  0  0  0  0  0  0  0
    7.8125   -1.6250    0.0000 C   0  0  0  0  0  0  0  0  0  0  0  0
    6.0792    0.4958    0.0000 C   0  0  0  0  0  0  0  0  0  0  0  0
    6.0917   -5.6167    0.0000 C   0  0  0  0  0  0  0  0  0  0  0  0
    2.1167   -1.5875    0.0000 C   0  0  0  0  0  0  0  0  0  0  0  0
    2.4542   -2.1542    0.0000 O   0  0  0  0  0  0  0  0  0  0  0  0
    1.1167   -3.9292    0.0000 C   0  0  0  0  0  0  0  0  0  0  0  0
    0.4042   -4.3417    0.0000 C   0  0  0  0  0  0  0  0  0  0  0  0
    4.2667   -5.9667    0.0000 O   0  0  0  0  0  0  0  0  0  0  0  0
    6.7417    1.3208    0.0000 C   0  0  0  0  0  0  0  0  0  0  0  0
    3.7917   -7.3000    0.0000 O   0  0  0  0  0  0  0  0  0  0  0  0
    5.0917    0.8708    0.0000 C   0  0  0  0  0  0  0  0  0  0  0  0
    6.1625    2.1958    0.0000 O   0  0  0  0  0  0  0  0  0  0  0  0
    5.3000   -5.8292    0.0000 O   0  0  0  0  0  0  0  0  0  0  0  0
    3.9667   -3.9250    0.0000 O   0  0  0  0  0  0  0  0  0  0  0  0
    2.5417   -0.8792    0.0000 O   0  0  0  0  0  0  0  0  0  0  0  0
    8.8625   -1.6250    0.0000 O   0  0  0  0  0  0  0  0  0  0  0  0
    5.1417    1.9208    0.0000 C   0  0  0  0  0  0  0  0  0  0  0  0
    0.4042   -5.1667    0.0000 O   0  0  0  0  0  0  0  0  0  0  0  0
    3.6042   -8.3125    0.0000 C   0  0  0  0  0  0  0  0  0  0  0  0
    2.1417   -2.7792    0.0000 C   0  0  0  0  0  0  0  0  0  0  0  0
    5.3167   -0.6417    0.0000 C   0  0  0  0  0  0  0  0  0  0  0  0
    6.6792   -6.2042    0.0000 C   0  0  0  0  0  0  0  0  0  0  0  0
    1.2917   -1.5667    0.0000 C   0  0  0  0  0  0  0  0  0  0  0  0
    1.1167   -5.5750    0.0000 C   0  0  0  0  0  0  0  0  0  0  0  0
    4.6750   -1.6250    0.0000 C   0  0  0  0  0  0  0  0  0  0  0  0
   -0.3125   -3.9292    0.0000 O   0  0  0  0  0  0  0  0  0  0  0  0
    3.2375   -9.5917    0.0000 C   0  0  0  0  0  0  0  0  0  0  0  0
    0.8917   -0.8500    0.0000 C   0  0  0  0  0  0  0  0  0  0  0  0
    7.4792   -5.9917    0.0000 C   0  0  0  0  0  0  0  0  0  0  0  0
    6.4667   -7.0000    0.0000 C   0  0  0  0  0  0  0  0  0  0  0  0
    0.8625   -2.2792    0.0000 C   0  0  0  0  0  0  0  0  0  0  0  0
   -0.3208   -3.1042    0.0000 C   0  0  0  0  0  0  0  0  0  0  0  0
    1.3167   -0.1417    0.0000 C   0  0  0  0  0  0  0  0  0  0  0  0
  2  1  1  0
  3  9  1  0
  4  2  1  0
  5  1  1  0
  3  6  1  0
  7 15  1  0
  8  5  1  0
  9  1  1  0
 10 12  1  0
 11  7  1  0
 12  3  1  0
 13 17  1  0
 14  4  1  0
 15 23  1  0
 16  7  1  0
 17  1  1  0
 18  8  1  0
 19  2  1  0
 20  2  1  0
 21  5  1  0
 22  6  1  0
 12 23  1  1
  9 24  1  6
 25  8  1  0
 26  5  1  0
 27 28  1  0
 28 26  1  0
 18 29  1  0
 30 24  1  0
 31 32  1  0
 20 32  1  6
 14 33  1  6
 34 33  1  0
  3 35  1  6
 36 29  2  0
 37 15  2  0
 38 29  1  0
 39 36  1  0
 40 30  2  0
  6 41  1  1
 42 31  2  0
 43 28  2  0
 44 38  2  0
 45 34  2  0
 46  7  1  0
  4 47  1  6
  8 48  1  6
 49 30  1  0
 50 31  1  0
 10 51  1  1
 52 13  1  0
 53 34  1  0
 54 16  1  0
 55 50  1  0
 56 49  1  0
 57 49  1  0
 58 50  1  0
 59 53  1  0
 60 55  1  0
 21 13  1  0
 19 13  1  0
  6  4  1  0
 25 20  1  0
 10 14  1  0
 22 10  1  0
 18 27  1  6
 44 39  1  0
 11 16  1  0
M  END
>  <ID>  (1888) 


>  <MOLENAME>  (1888) 
ENTANDROPHRAGMIN

>  <therap>  (1888) 
nan

>  <ref>  (1888) 
J. Chem. Res. Synop. 1977: 154

>  <cas#>  (1888) 
11013-05-1

>  <source>  (1888) 
Entangrophragma spp.

>  <status>  (1888) 
undetermined activity

>  <tradename>  (1888) 
nan

>  <SMILES>  (1888) 
CCC(C)C(=O)O[C@@H]1C[C@@]2(C)[C@H](c3cocc3)OC(=O)CC23OC2(C)OC34[C@H](OC(=O)C(C)C)[C@@]3(O)[C@@H](OC(=O)C5(C)OC5C)[C@@]5(C)C[C@]3(O)[C@@](C)([C@H]5CC(=O)OC)C14O2

>  <standardized_failed>  (1888) 
False

$$$$

     RDKit          2D

 21 23  0  0  0  0  0  0  0  0999 V2000
    3.6167   -1.9500    0.0000 C   0  0  0  0  0  0  0  0  0  0  0  0
    2.9667   -3.0750    0.0000 C   0  0  0  0  0  0  0  0  0  0  0  0
    3.6167   -2.7000    0.0000 C   0  0  0  0  0  0  0  0  0  0  0  0
    2.3167   -2.7000    0.0000 C   0  0  0  0  0  0  0  0  0  0  0  0
    2.9667   -1.5750    0.0000 O   0  0  0  0  0  0  0  0  0  0  0  0
    2.3167   -1.9500    0.0000 C   0  0  0  0  0  0  0  0  0  0  0  0
    4.2667   -1.5750    0.0000 C   0  0  0  0  0  0  0  0  0  0  0  0
    2.9667   -3.8250    0.0000 O   0  0  0  0  0  0  0  0  0  0  0  0
    1.6750   -3.0750    0.0000 C   0  0  0  0  0  0  0  0  0  0  0  0
    4.2667   -0.8250    0.0000 C   0  0  0  0  0  0  0  0  0  0  0  0
    1.6750   -1.5750    0.0000 C   0  0  0  0  0  0  0  0  0  0  0  0
    1.6750   -3.8292    0.0000 O   0  0  0  0  0  0  0  0  0  0  0  0
    3.6125   -0.4417    0.0000 O   0  0  0  0  0  0  0  0  0  0  0  0
    4.9125   -1.9500    0.0000 C   0  0  0  0  0  0  0  0  0  0  0  0
    1.0250   -1.9500    0.0000 C   0  0  0  0  0  0  0  0  0  0  0  0
    1.0250   -2.7000    0.0000 C   0  0  0  0  0  0  0  0  0  0  0  0
    4.9125   -0.4500    0.0000 C   0  0  0  0  0  0  0  0  0  0  0  0
    1.0292   -4.1917    0.0000 C   0  0  0  0  0  0  0  0  0  0  0  0
    3.6167    0.3125    0.0000 C   0  0  0  0  0  0  0  0  0  0  0  0
    5.5625   -1.5750    0.0000 C   0  0  0  0  0  0  0  0  0  0  0  0
    5.5625   -0.8250    0.0000 C   0  0  0  0  0  0  0  0  0  0  0  0
  2  3  1  0
  3  1  2  0
  4  6  2  0
  5  1  1  0
  6  5  1  0
  7  1  1  0
  8  2  2  0
  9  4  1  0
 10  7  2  0
 11  6  1  0
 12  9  1  0
 13 10  1  0
 14  7  1  0
 15 11  2  0
 16 15  1  0
 17 10  1  0
 18 12  1  0
 19 13  1  0
 20 14  2  0
 21 20  1  0
  4  2  1  0
 21 17  2  0
  9 16  2  0
M  END
>  <ID>  (1889) 


>  <MOLENAME>  (1889) 
5.2'-DIMETHOXYFLAVONE

>  <therap>  (1889) 
nan

>  <ref>  (1889) 
nan

>  <cas#>  (1889) 
nan

>  <source>  (1889) 
Primula spp

>  <status>  (1889) 
undetermined activity

>  <tradename>  (1889) 
nan

>  <SMILES>  (1889) 
COc1c(-c2cc(=O)c3c(cccc3OC)o2)cccc1

>  <standardized_failed>  (1889) 
False

$$$$

     RDKit          2D

 17 18  0  0  0  0  0  0  0  0999 V2000
    2.0250    0.8583    0.0000 C   0  0  0  0  0  0  0  0  0  0  0  0
    1.3042    1.2708    0.0000 C   0  0  0  0  0  0  0  0  0  0  0  0
    0.5917    0.8583    0.0000 C   0  0  0  0  0  0  0  0  0  0  0  0
    0.5917    0.0333    0.0000 C   0  0  0  0  0  0  0  0  0  0  0  0
    2.0250    0.0333    0.0000 C   0  0  0  0  0  0  0  0  0  0  0  0
    1.3042   -0.3792    0.0000 O   0  0  0  0  0  0  0  0  0  0  0  0
    2.7417    1.2708    0.0000 C   0  0  0  0  0  0  0  0  0  0  0  0
   -0.1208    1.2708    0.0000 C   0  0  0  0  0  0  0  0  0  0  0  0
   -0.1208   -0.3792    0.0000 C   0  0  0  0  0  0  0  0  0  0  0  0
    2.7500    2.0958    0.0000 C   0  0  0  0  0  0  0  0  0  0  0  0
    1.3042    2.0958    0.0000 O   0  0  0  0  0  0  0  0  0  0  0  0
    2.0292    2.5083    0.0000 O   0  0  0  0  0  0  0  0  0  0  0  0
   -0.8333    0.0333    0.0000 C   0  0  0  0  0  0  0  0  0  0  0  0
   -0.8333    0.8583    0.0000 C   0  0  0  0  0  0  0  0  0  0  0  0
    3.4625    2.5083    0.0000 O   0  0  0  0  0  0  0  0  0  0  0  0
   -1.5583   -0.3917    0.0000 O   0  0  0  0  0  0  0  0  0  0  0  0
   -2.2750    0.0208    0.0000 C   0  0  0  0  0  0  0  0  0  0  0  0
  2  1  1  0
  3  2  1  0
  4  6  1  0
  5  1  2  0
  6  5  1  0
  7  1  1  0
  8  3  2  0
  9  4  2  0
 10  7  1  0
 11  2  2  0
 12 10  2  0
 13  9  1  0
 14  8  1  0
 15 10  1  0
 16 13  1  0
 17 16  1  0
  4  3  1  0
 14 13  2  0
M  END
>  <ID>  (1890) 


>  <MOLENAME>  (1890) 
ANHYDROBRAZILIC ACID

>  <therap>  (1890) 
nan

>  <ref>  (1890) 
nan

>  <cas#>  (1890) 
nan

>  <source>  (1890) 
derivative

>  <status>  (1890) 
undetermined activity

>  <tradename>  (1890) 
nan

>  <SMILES>  (1890) 
COc1ccc2c(=O)c(CC(=O)O)coc2c1

>  <standardized_failed>  (1890) 
False

$$$$

     RDKit          2D

 23 25  0  0  0  0  0  0  0  0999 V2000
    3.5042   -4.0417    0.0000 C   0  0  0  0  0  0  0  0  0  0  0  0
    4.3792   -4.5667    0.0000 C   0  0  0  0  0  0  0  0  0  0  0  0
    3.5042   -3.0542    0.0000 C   0  0  0  0  0  0  0  0  0  0  0  0
    5.2792   -4.0792    0.0000 C   0  0  0  0  0  0  0  0  0  0  0  0
    4.3792   -2.5167    0.0000 O   0  0  0  0  0  0  0  0  0  0  0  0
    2.6292   -4.5667    0.0000 C   0  0  0  0  0  0  0  0  0  0  0  0
    2.6292   -2.5167    0.0000 C   0  0  0  0  0  0  0  0  0  0  0  0
    8.8292   -4.1042    0.0000 C   0  0  0  0  0  0  0  0  0  0  0  0
    5.2792   -3.0167    0.0000 C   0  0  0  0  0  0  0  0  0  0  0  0
    6.1792   -4.6042    0.0000 C   0  0  0  0  0  0  0  0  0  0  0  0
    4.3792   -5.5667    0.0000 O   0  0  0  0  0  0  0  0  0  0  0  0
    8.8500   -3.0917    0.0000 C   0  0  0  0  0  0  0  0  0  0  0  0
    7.9500   -4.6042    0.0000 C   0  0  0  0  0  0  0  0  0  0  0  0
    7.0792   -4.1042    0.0000 C   0  0  0  0  0  0  0  0  0  0  0  0
    7.9500   -2.5917    0.0000 C   0  0  0  0  0  0  0  0  0  0  0  0
    1.7542   -3.0167    0.0000 C   0  0  0  0  0  0  0  0  0  0  0  0
    1.7542   -4.0792    0.0000 C   0  0  0  0  0  0  0  0  0  0  0  0
    7.0792   -3.1167    0.0000 C   0  0  0  0  0  0  0  0  0  0  0  0
    9.7000   -4.6792    0.0000 O   0  0  0  0  0  0  0  0  0  0  0  0
    9.7500   -2.5917    0.0000 O   0  0  0  0  0  0  0  0  0  0  0  0
    0.8542   -2.4792    0.0000 O   0  0  0  0  0  0  0  0  0  0  0  0
   10.6417   -3.0917    0.0000 C   0  0  0  0  0  0  0  0  0  0  0  0
    0.8542   -1.4542    0.0000 C   0  0  0  0  0  0  0  0  0  0  0  0
  2  1  1  0
  3  1  2  0
  4  2  1  0
  5  3  1  0
  6  1  1  0
  7  3  1  0
  8 13  2  0
  9  5  1  0
 10  4  1  0
 11  2  2  0
 12 15  2  0
 13 14  1  0
 14 10  1  0
 15 18  1  0
 16 17  1  0
 17  6  2  0
 18 14  2  0
 19  8  1  0
 20 12  1  0
 21 16  1  0
 22 20  1  0
 23 21  1  0
 16  7  2  0
  4  9  1  0
  8 12  1  0
M  END
>  <ID>  (1891) 


>  <MOLENAME>  (1891) 
DEOXYSAPPANONE B 7.4'-DIMETHYL ETHER

>  <therap>  (1891) 
nan

>  <ref>  (1891) 
Chem Pharm Bull 34: 2506 (1986); 35: 3597 (1987)

>  <cas#>  (1891) 
nan

>  <source>  (1891) 
Caesalpinia sappan

>  <status>  (1891) 
undetermined activity

>  <tradename>  (1891) 
nan

>  <SMILES>  (1891) 
COc1cc2c(cc1)C(=O)C(Cc1ccc(OC)c(O)c1)CO2

>  <standardized_failed>  (1891) 
False

$$$$

     RDKit          2D

 42 47  0  0  0  0  0  0  0  0999 V2000
    1.4667    0.1958    0.0000 C   0  0  0  0  0  0  0  0  0  0  0  0
    2.1792   -0.1792    0.0000 C   0  0  0  0  0  0  0  0  0  0  0  0
    0.7417   -0.1792    0.0000 C   0  0  0  0  0  0  0  0  0  0  0  0
    1.4667    1.0333    0.0000 C   0  0  0  0  0  0  0  0  0  0  0  0
    1.4667   -0.5792    0.0000 O   0  0  0  0  0  0  0  0  0  0  0  0
   -0.6833   -0.1792    0.0000 C   0  0  0  0  0  0  0  0  0  0  0  0
    0.0167    0.1958    0.0000 C   0  0  0  0  0  0  0  0  0  0  0  0
    2.8792    0.1958    0.0000 C   0  0  0  0  0  0  0  0  0  0  0  0
   -0.6833   -1.0292    0.0000 C   0  0  0  0  0  0  0  0  0  0  0  0
    2.1792    1.4583    0.0000 C   0  0  0  0  0  0  0  0  0  0  0  0
    2.8792    1.0333    0.0000 O   0  0  0  0  0  0  0  0  0  0  0  0
    0.7417   -0.9917    0.0000 C   0  0  0  0  0  0  0  0  0  0  0  0
   -1.3833   -1.4417    0.0000 C   0  0  0  0  0  0  0  0  0  0  0  0
   -1.3833    0.1958    0.0000 C   0  0  0  0  0  0  0  0  0  0  0  0
   -2.1083   -1.0292    0.0000 C   0  0  0  0  0  0  0  0  0  0  0  0
    2.1792    2.2833    0.0000 C   0  0  0  0  0  0  0  0  0  0  0  0
    0.0542   -1.4042    0.0000 C   0  0  0  0  0  0  0  0  0  0  0  0
   -2.1083   -0.1792    0.0000 C   0  0  0  0  0  0  0  0  0  0  0  0
    0.7417    1.4583    0.0000 C   0  0  0  0  0  0  0  0  0  0  0  0
    0.0167    1.0333    0.0000 C   0  0  0  0  0  0  0  0  0  0  0  0
    1.4542   -1.4042    0.0000 O   0  0  0  0  0  0  0  0  0  0  0  0
   -1.3958    1.0208    0.0000 O   0  0  0  0  0  0  0  0  0  0  0  0
   -2.8333   -1.4292    0.0000 O   0  0  0  0  0  0  0  0  0  0  0  0
   -2.1083    1.4333    0.0000 C   0  0  0  0  0  0  0  0  0  0  0  0
    1.4667   -2.2292    0.0000 C   0  0  0  0  0  0  0  0  0  0  0  0
   -3.5333   -1.0042    0.0000 C   0  0  0  0  0  0  0  0  0  0  0  0
    3.6042   -0.2167    0.0000 O   0  0  0  0  0  0  0  0  0  0  0  0
    2.7167    2.7458    0.0000 C   0  0  0  0  0  0  0  0  0  0  0  0
    1.4292    2.5375    0.0000 C   0  0  0  0  0  0  0  0  0  0  0  0
    2.3542    3.4833    0.0000 O   0  0  0  0  0  0  0  0  0  0  0  0
    1.5292    3.3333    0.0000 C   0  0  0  0  0  0  0  0  0  0  0  0
    0.7542   -2.6417    0.0000 O   0  0  0  0  0  0  0  0  0  0  0  0
   -2.8208    1.0208    0.0000 O   0  0  0  0  0  0  0  0  0  0  0  0
   -4.2583   -1.4167    0.0000 O   0  0  0  0  0  0  0  0  0  0  0  0
    0.7417    0.7833    0.0000 C   0  0  0  0  0  0  0  0  0  0  0  0
    1.4667    1.8708    0.0000 C   0  0  0  0  0  0  0  0  0  0  0  0
   -0.6833    0.7333    0.0000 C   0  0  0  0  0  0  0  0  0  0  0  0
   -0.6833   -1.8667    0.0000 C   0  0  0  0  0  0  0  0  0  0  0  0
   -2.1083   -1.8667    0.0000 C   0  0  0  0  0  0  0  0  0  0  0  0
    2.1792   -2.6292    0.0000 C   0  0  0  0  0  0  0  0  0  0  0  0
   -2.1083    2.2583    0.0000 C   0  0  0  0  0  0  0  0  0  0  0  0
   -3.5333   -0.1792    0.0000 C   0  0  0  0  0  0  0  0  0  0  0  0
  2  1  1  0
  3  1  1  0
  4  1  1  0
  1  5  1  1
  6  7  1  0
  7  3  1  0
  8  2  1  0
  9 17  1  0
 10  4  1  0
 10 11  1  6
 12  3  1  0
 13  9  1  0
 14  6  1  0
 15 13  1  0
 10 16  1  0
 17 12  1  0
 18 14  1  0
 19  4  1  0
 20 19  1  0
 12 21  1  6
 14 22  1  6
 15 23  1  6
 24 22  1  0
 25 21  1  0
 26 23  1  0
 27  8  2  0
 28 16  2  0
 29 16  1  0
 30 28  1  0
 31 29  2  0
 32 25  2  0
 33 24  2  0
 34 26  2  0
  3 35  1  1
  4 36  1  6
  6 37  1  1
 38 13  1  0
 39 13  1  0
 40 25  1  0
 41 24  1  0
 42 26  1  0
  2  5  1  1
 20  7  1  0
  8 11  1  0
  9  6  1  0
 31 30  1  0
 18 15  1  0
M  END
>  <ID>  (1892) 


>  <MOLENAME>  (1892) 
KHIVORIN

>  <therap>  (1892) 
nan

>  <ref>  (1892) 
J Chem Soc 1962: 768

>  <cas#>  (1892) 
2524-38-1

>  <source>  (1892) 
Khaya and other West African timbers

>  <status>  (1892) 
undetermined activity

>  <tradename>  (1892) 
nan

>  <SMILES>  (1892) 
CC(=O)O[C@H]1C[C@@H](OC(C)=O)C(C)(C)C2C[C@@H](OC(C)=O)[C@]3(C)C(CC[C@@]4(C)[C@H](c5cocc5)OC(=O)[C@H]5O[C@]543)[C@]21C

>  <standardized_failed>  (1892) 
False

$$$$

     RDKit          2D

 32 37  0  0  0  0  0  0  0  0999 V2000
    6.7375   -3.8625    0.0000 C   0  0  0  0  0  0  0  0  0  0  0  0
    7.6042   -4.3417    0.0000 C   0  0  0  0  0  0  0  0  0  0  0  0
    5.8542   -4.3417    0.0000 C   0  0  0  0  0  0  0  0  0  0  0  0
    6.7375   -2.8417    0.0000 C   0  0  0  0  0  0  0  0  0  0  0  0
    6.7625   -4.8000    0.0000 O   0  0  0  0  0  0  0  0  0  0  0  0
    4.0750   -4.3417    0.0000 C   0  0  0  0  0  0  0  0  0  0  0  0
    4.9542   -3.8625    0.0000 C   0  0  0  0  0  0  0  0  0  0  0  0
    8.4750   -3.8625    0.0000 C   0  0  0  0  0  0  0  0  0  0  0  0
    4.0750   -5.3667    0.0000 C   0  0  0  0  0  0  0  0  0  0  0  0
    7.6042   -2.3167    0.0000 C   0  0  0  0  0  0  0  0  0  0  0  0
    8.4750   -2.8417    0.0000 O   0  0  0  0  0  0  0  0  0  0  0  0
    5.8542   -5.3417    0.0000 C   0  0  0  0  0  0  0  0  0  0  0  0
    3.2042   -5.8917    0.0000 C   0  0  0  0  0  0  0  0  0  0  0  0
    3.2042   -3.8625    0.0000 C   0  0  0  0  0  0  0  0  0  0  0  0
    7.6042   -1.4917    0.0000 C   0  0  0  0  0  0  0  0  0  0  0  0
    4.9917   -5.8417    0.0000 C   0  0  0  0  0  0  0  0  0  0  0  0
    5.8542   -2.3167    0.0000 C   0  0  0  0  0  0  0  0  0  0  0  0
    2.3167   -5.3667    0.0000 C   0  0  0  0  0  0  0  0  0  0  0  0
    2.3167   -4.3417    0.0000 C   0  0  0  0  0  0  0  0  0  0  0  0
    4.9542   -2.8417    0.0000 C   0  0  0  0  0  0  0  0  0  0  0  0
    9.3625   -4.3792    0.0000 O   0  0  0  0  0  0  0  0  0  0  0  0
    8.2875   -0.7542    0.0000 C   0  0  0  0  0  0  0  0  0  0  0  0
    6.7000   -1.0292    0.0000 C   0  0  0  0  0  0  0  0  0  0  0  0
    7.8292    0.1458    0.0000 O   0  0  0  0  0  0  0  0  0  0  0  0
    6.8292   -0.0542    0.0000 C   0  0  0  0  0  0  0  0  0  0  0  0
    1.4417   -5.8792    0.0000 O   0  0  0  0  0  0  0  0  0  0  0  0
    5.8542   -3.1292    0.0000 C   0  0  0  0  0  0  0  0  0  0  0  0
    6.7375   -1.8125    0.0000 C   0  0  0  0  0  0  0  0  0  0  0  0
    6.7250   -5.8500    0.0000 O   0  0  0  0  0  0  0  0  0  0  0  0
    4.0750   -3.2000    0.0000 C   0  0  0  0  0  0  0  0  0  0  0  0
    4.0750   -6.4292    0.0000 C   0  0  0  0  0  0  0  0  0  0  0  0
    2.3167   -6.4292    0.0000 C   0  0  0  0  0  0  0  0  0  0  0  0
  2  1  1  0
  3  1  1  0
  4  1  1  0
  1  5  1  1
  6  7  1  0
  7  3  1  0
  8  2  1  0
  9 16  1  0
 10  4  1  0
 10 11  1  6
 12  3  1  0
 13  9  1  0
 14  6  1  0
 10 15  1  0
 16 12  1  0
 17  4  1  0
 18 13  1  0
 19 14  2  0
 20 17  1  0
 21  8  2  0
 22 15  2  0
 23 15  1  0
 24 22  1  0
 25 23  2  0
 26 18  2  0
  3 27  1  1
  4 28  1  6
 12 29  1  6
  6 30  1  1
 31 13  1  0
 32 13  1  0
  2  5  1  1
 20  7  1  0
 11  8  1  0
  6  9  1  0
 25 24  1  0
 19 18  1  0
M  END
>  <ID>  (1893) 


>  <MOLENAME>  (1893) 
DEACETYLGEDUNIN

>  <therap>  (1893) 
nan

>  <ref>  (1893) 
J Chem Soc 1961: 3705; Phytochemistry 10: 1845 (1971)

>  <cas#>  (1893) 
nan

>  <source>  (1893) 
Khaya, Azadirachta and other West African timbers; mp 264-266

>  <status>  (1893) 
undetermined activity

>  <tradename>  (1893) 
nan

>  <SMILES>  (1893) 
CC1(C)C(=O)C=C[C@@]2(C)C1C[C@@H](O)[C@]1(C)C2CC[C@@]2(C)[C@H](c3cocc3)OC(=O)[C@H]3O[C@]321

>  <standardized_failed>  (1893) 
False

$$$$

     RDKit          2D

 11 11  0  0  0  0  0  0  0  0999 V2000
    6.2792   -3.9292    0.0000 C   0  0  0  0  0  0  0  0  0  0  0  0
    5.1000   -4.5917    0.0000 C   0  0  0  0  0  0  0  0  0  0  0  0
    3.9417   -3.9292    0.0000 C   0  0  0  0  0  0  0  0  0  0  0  0
    6.2792   -2.5542    0.0000 C   0  0  0  0  0  0  0  0  0  0  0  0
    7.4792   -4.6292    0.0000 O   0  0  0  0  0  0  0  0  0  0  0  0
    5.1000   -5.9792    0.0000 C   0  0  0  0  0  0  0  0  0  0  0  0
    3.9417   -2.5542    0.0000 C   0  0  0  0  0  0  0  0  0  0  0  0
    5.1000   -1.8667    0.0000 C   0  0  0  0  0  0  0  0  0  0  0  0
    6.2792   -6.6292    0.0000 C   0  0  0  0  0  0  0  0  0  0  0  0
    3.9167   -6.6667    0.0000 C   0  0  0  0  0  0  0  0  0  0  0  0
    5.1000   -0.5167    0.0000 C   0  0  0  0  0  0  0  0  0  0  0  0
  2  1  1  0
  3  2  1  0
  4  1  1  0
  5  1  2  0
  2  6  1  6
  7  8  1  0
  8  4  1  0
  9  6  1  0
 10  6  1  0
  8 11  1  1
  7  3  1  0
M  END
>  <ID>  (1894) 


>  <MOLENAME>  (1894) 
MENTHONE

>  <therap>  (1894) 
nan

>  <ref>  (1894) 
J Org Chem 25: 1434 (1960)

>  <cas#>  (1894) 
14073-97-3

>  <source>  (1894) 
pennyroyal and peppermint oils

>  <status>  (1894) 
undetermined activity

>  <tradename>  (1894) 
nan

>  <SMILES>  (1894) 
CC(C)[C@@H]1CC[C@@H](C)CC1=O

>  <standardized_failed>  (1894) 
False

$$$$

     RDKit          2D

 22 23  0  0  0  0  0  0  0  0999 V2000
    6.1625   -1.4917    0.0000 C   0  0  0  0  0  0  0  0  0  0  0  0
    6.5750   -2.2042    0.0000 C   0  0  0  0  0  0  0  0  0  0  0  0
    4.9167   -2.2042    0.0000 O   0  0  0  0  0  0  0  0  0  0  0  0
    5.3375   -1.4917    0.0000 C   0  0  0  0  0  0  0  0  0  0  0  0
    6.1542   -2.9167    0.0000 C   0  0  0  0  0  0  0  0  0  0  0  0
    5.3292   -2.9167    0.0000 C   0  0  0  0  0  0  0  0  0  0  0  0
    6.5750   -0.7792    0.0000 O   0  0  0  0  0  0  0  0  0  0  0  0
    7.4000   -2.2125    0.0000 O   0  0  0  0  0  0  0  0  0  0  0  0
    6.5667   -3.6292    0.0000 O   0  0  0  0  0  0  0  0  0  0  0  0
    4.9292   -0.7792    0.0000 O   0  0  0  0  0  0  0  0  0  0  0  0
    0.8042    0.6500    0.0000 C   0  0  0  0  0  0  0  0  0  0  0  0
    4.9167   -3.6292    0.0000 C   0  0  0  0  0  0  0  0  0  0  0  0
    2.4542    0.6583    0.0000 C   0  0  0  0  0  0  0  0  0  0  0  0
    1.2167   -0.0542    0.0000 C   0  0  0  0  0  0  0  0  0  0  0  0
    1.2167    1.3625    0.0000 C   0  0  0  0  0  0  0  0  0  0  0  0
    2.0417    1.3708    0.0000 C   0  0  0  0  0  0  0  0  0  0  0  0
    2.0417   -0.0542    0.0000 C   0  0  0  0  0  0  0  0  0  0  0  0
   -0.0208    0.6500    0.0000 O   0  0  0  0  0  0  0  0  0  0  0  0
    5.4542   -4.2542    0.0000 O   0  0  0  0  0  0  0  0  0  0  0  0
    4.5167   -0.0625    0.0000 C   0  0  0  0  0  0  0  0  0  0  0  0
    3.2792    0.6583    0.0000 C   0  0  0  0  0  0  0  0  0  0  0  0
    3.6917   -0.0625    0.0000 C   0  0  0  0  0  0  0  0  0  0  0  0
  2  1  1  0
  3  4  1  0
  4  1  1  0
  5  2  1  0
  6  3  1  0
  1  7  1  6
  2  8  1  1
  5  9  1  6
  4 10  1  6
 11 14  2  0
  6 12  1  1
 13 21  1  0
 14 17  1  0
 15 16  2  0
 16 13  1  0
 17 13  2  0
 18 11  1  0
 19 12  1  0
 20 10  1  0
 21 22  1  0
 22 20  1  0
  5  6  1  0
 15 11  1  0
M  END
>  <ID>  (1895) 


>  <MOLENAME>  (1895) 
SALIDROSIDE

>  <therap>  (1895) 
nan

>  <ref>  (1895) 
Naturwissenschaften 51:360 (1964)

>  <cas#>  (1895) 
10338-51-9

>  <source>  (1895) 
Salix triandra, Rhodiola spp

>  <status>  (1895) 
undetermined activity

>  <tradename>  (1895) 
nan

>  <SMILES>  (1895) 
OC[C@H]1O[C@H](OCCCc2ccc(O)cc2)[C@H](O)[C@@H](O)[C@@H]1O

>  <standardized_failed>  (1895) 
False

$$$$

     RDKit          2D

 10  9  0  0  0  0  0  0  0  0999 V2000
    2.9042   -3.7792    0.0000 N   0  0  0  0  0  0  0  0  0  0  0  0
    2.3000   -4.8667    0.0000 Cl  0  0  0  0  0  0  0  0  0  0  0  0
    1.6667   -3.0625    0.0000 C   0  0  0  0  0  0  0  0  0  0  0  0
    2.4917   -3.0625    0.0000 C   0  0  0  0  0  0  0  0  0  0  0  0
    3.7292   -3.7792    0.0000 C   0  0  0  0  0  0  0  0  0  0  0  0
    1.2542   -3.7750    0.0000 C   0  0  0  0  0  0  0  0  0  0  0  0
    1.2542   -2.3500    0.0000 C   0  0  0  0  0  0  0  0  0  0  0  0
    0.4292   -3.7750    0.0000 C   0  0  0  0  0  0  0  0  0  0  0  0
    0.4292   -2.3542    0.0000 C   0  0  0  0  0  0  0  0  0  0  0  0
    0.0167   -3.0667    0.0000 C   0  0  0  0  0  0  0  0  0  0  0  0
  3  4  1  0
  4  1  1  0
  5  1  1  0
  6  3  2  0
  7  3  1  0
  8  6  1  0
  9  7  2  0
 10  8  2  0
  9 10  1  0
M  END
>  <ID>  (1896) 


>  <MOLENAME>  (1896) 
N-METHYLBENZYLAMINE HYDROCHLORIDE

>  <therap>  (1896) 
nan

>  <ref>  (1896) 
nan

>  <cas#>  (1896) 
13426-94-3, 103-67-3(base)

>  <source>  (1896) 
Ephedra sp.

>  <status>  (1896) 
undetermined activity

>  <tradename>  (1896) 
nan

>  <SMILES>  (1896) 
CNCc1ccccc1

>  <standardized_failed>  (1896) 
False

$$$$

     RDKit          2D

 24 26  0  0  0  0  0  0  0  0999 V2000
    1.9167    0.1375    0.0000 C   0  0  0  0  0  0  0  0  0  0  0  0
    1.9167    0.9708    0.0000 C   0  0  0  0  0  0  0  0  0  0  0  0
    2.6292   -0.2750    0.0000 C   0  0  0  0  0  0  0  0  0  0  0  0
    3.3542    0.1375    0.0000 C   0  0  0  0  0  0  0  0  0  0  0  0
    2.6375    1.3958    0.0000 O   0  0  0  0  0  0  0  0  0  0  0  0
    1.2042   -0.2667    0.0000 C   0  0  0  0  0  0  0  0  0  0  0  0
    1.2042    1.3833    0.0000 C   0  0  0  0  0  0  0  0  0  0  0  0
    4.7792   -2.3292    0.0000 C   0  0  0  0  0  0  0  0  0  0  0  0
    3.3542    0.9708    0.0000 C   0  0  0  0  0  0  0  0  0  0  0  0
    4.0667   -0.2792    0.0000 C   0  0  0  0  0  0  0  0  0  0  0  0
    4.0625   -2.7500    0.0000 C   0  0  0  0  0  0  0  0  0  0  0  0
    4.7792   -1.5125    0.0000 C   0  0  0  0  0  0  0  0  0  0  0  0
    4.0667   -1.1042    0.0000 C   0  0  0  0  0  0  0  0  0  0  0  0
    3.3500   -2.3292    0.0000 C   0  0  0  0  0  0  0  0  0  0  0  0
    0.4917    0.9708    0.0000 C   0  0  0  0  0  0  0  0  0  0  0  0
    2.6292   -1.1000    0.0000 O   0  0  0  0  0  0  0  0  0  0  0  0
    0.4917    0.1458    0.0000 C   0  0  0  0  0  0  0  0  0  0  0  0
    3.3500   -1.5125    0.0000 C   0  0  0  0  0  0  0  0  0  0  0  0
    5.4917   -2.7417    0.0000 O   0  0  0  0  0  0  0  0  0  0  0  0
    4.0625   -3.5750    0.0000 O   0  0  0  0  0  0  0  0  0  0  0  0
   -0.2208    1.3833    0.0000 O   0  0  0  0  0  0  0  0  0  0  0  0
    5.4917   -3.5667    0.0000 C   0  0  0  0  0  0  0  0  0  0  0  0
    3.3417   -3.9875    0.0000 C   0  0  0  0  0  0  0  0  0  0  0  0
   -0.2208    2.2083    0.0000 C   0  0  0  0  0  0  0  0  0  0  0  0
  2  1  2  0
  3  1  1  0
  4  3  1  0
  5  2  1  0
  6  1  1  0
  7  2  1  0
  8 12  2  0
  9  4  1  0
  4 10  1  1
 11 14  2  0
 12 13  1  0
 13 10  1  0
 14 18  1  0
 15 17  1  0
  3 16  1  6
 17  6  2  0
 18 13  2  0
 19  8  1  0
 20 11  1  0
 21 15  1  0
 22 19  1  0
 23 20  1  0
 24 21  1  0
  7 15  2  0
  9  5  1  0
  8 11  1  0
M  END
>  <ID>  (1897) 


>  <MOLENAME>  (1897) 
3-DESHYDROXYSAPPANOL TRIMETHYL ETHER

>  <therap>  (1897) 
nan

>  <ref>  (1897) 
nan

>  <cas#>  (1897) 
nan

>  <source>  (1897) 
derivative

>  <status>  (1897) 
undetermined activity

>  <tradename>  (1897) 
nan

>  <SMILES>  (1897) 
COc1cc2c(cc1)[C@@H](O)[C@H](Cc1ccc(OC)c(OC)c1)CO2

>  <standardized_failed>  (1897) 
False

$$$$

     RDKit          2D

 15 17  0  0  0  0  0  0  0  0999 V2000
    2.7917   -3.2042    0.0000 C   0  0  0  0  0  0  0  0  0  0  0  0
    2.0667   -2.7917    0.0000 C   0  0  0  0  0  0  0  0  0  0  0  0
    3.5042   -2.7875    0.0000 C   0  0  0  0  0  0  0  0  0  0  0  0
    2.7792   -1.5500    0.0000 O   0  0  0  0  0  0  0  0  0  0  0  0
    3.5000   -1.9542    0.0000 C   0  0  0  0  0  0  0  0  0  0  0  0
    2.0667   -1.9667    0.0000 C   0  0  0  0  0  0  0  0  0  0  0  0
    2.7875   -4.0292    0.0000 O   0  0  0  0  0  0  0  0  0  0  0  0
    4.2167   -3.1917    0.0000 C   0  0  0  0  0  0  0  0  0  0  0  0
    1.3542   -3.2042    0.0000 C   0  0  0  0  0  0  0  0  0  0  0  0
    4.2125   -1.5417    0.0000 C   0  0  0  0  0  0  0  0  0  0  0  0
    1.3542   -1.5542    0.0000 C   0  0  0  0  0  0  0  0  0  0  0  0
    0.6417   -2.7917    0.0000 C   0  0  0  0  0  0  0  0  0  0  0  0
    4.9375   -2.7792    0.0000 C   0  0  0  0  0  0  0  0  0  0  0  0
    0.6417   -1.9667    0.0000 C   0  0  0  0  0  0  0  0  0  0  0  0
    4.9292   -1.9417    0.0000 C   0  0  0  0  0  0  0  0  0  0  0  0
  2  1  1  0
  3  1  1  0
  4  5  1  0
  5  3  2  0
  6  2  2  0
  7  1  2  0
  8  3  1  0
  9  2  1  0
 10  5  1  0
 11  6  1  0
 12  9  2  0
 13  8  2  0
 14 12  1  0
 15 13  1  0
  6  4  1  0
 15 10  2  0
 11 14  2  0
M  END
>  <ID>  (1898) 


>  <MOLENAME>  (1898) 
XANTHONE

>  <therap>  (1898) 
nan

>  <ref>  (1898) 
Phytochemistry 4: 411 (1968)

>  <cas#>  (1898) 
90-47-1

>  <source>  (1898) 
gentian and other flowers

>  <status>  (1898) 
undetermined activity

>  <tradename>  (1898) 
nan

>  <SMILES>  (1898) 
O=c1c2c(cccc2)oc2c1cccc2

>  <standardized_failed>  (1898) 
False

$$$$

     RDKit          2D

 13 13  0  0  0  0  0  0  0  0999 V2000
    4.3500   -3.4042    0.0000 C   0  0  0  0  0  0  0  0  0  0  0  0
    3.6292   -3.8167    0.0000 C   0  0  0  0  0  0  0  0  0  0  0  0
    3.6292   -4.6417    0.0000 C   0  0  0  0  0  0  0  0  0  0  0  0
    5.0542   -3.8125    0.0000 C   0  0  0  0  0  0  0  0  0  0  0  0
    4.3500   -2.5792    0.0000 C   0  0  0  0  0  0  0  0  0  0  0  0
    4.3417   -5.0542    0.0000 C   0  0  0  0  0  0  0  0  0  0  0  0
    5.0625   -4.6375    0.0000 C   0  0  0  0  0  0  0  0  0  0  0  0
    3.6292   -2.1667    0.0000 O   0  0  0  0  0  0  0  0  0  0  0  0
    2.9167   -3.4000    0.0000 O   0  0  0  0  0  0  0  0  0  0  0  0
    5.0625   -2.1667    0.0000 O   0  0  0  0  0  0  0  0  0  0  0  0
    4.3417   -5.8792    0.0000 O   0  0  0  0  0  0  0  0  0  0  0  0
    2.9167   -5.0500    0.0000 C   0  0  0  0  0  0  0  0  0  0  0  0
    5.7750   -3.4000    0.0000 C   0  0  0  0  0  0  0  0  0  0  0  0
  2  1  2  0
  3  2  1  0
  4  1  1  0
  5  1  1  0
  6  7  1  0
  7  4  2  0
  8  5  2  0
  9  2  1  0
 10  5  1  0
 11  6  1  0
 12  3  1  0
 13  4  1  0
  6  3  2  0
M  END
>  <ID>  (1899) 


>  <MOLENAME>  (1899) 
3-METHYLORSELLINIC ACID

>  <therap>  (1899) 
nan

>  <ref>  (1899) 
Helv Chim Acta 11: 864 (1928)

>  <cas#>  (1899) 
4707-46-4

>  <source>  (1899) 
Aspergillus terreus

>  <status>  (1899) 
undetermined activity

>  <tradename>  (1899) 
nan

>  <SMILES>  (1899) 
Cc1cc(O)c(C)c(O)c1C(=O)O

>  <standardized_failed>  (1899) 
False

$$$$

     RDKit          2D

 19 21  0  0  0  0  0  0  0  0999 V2000
    5.0667   -4.5875    0.0000 C   0  0  0  0  0  0  0  0  0  0  0  0
    5.7792   -5.0000    0.0000 C   0  0  0  0  0  0  0  0  0  0  0  0
    6.4917   -4.5792    0.0000 C   0  0  0  0  0  0  0  0  0  0  0  0
    6.4917   -3.7542    0.0000 C   0  0  0  0  0  0  0  0  0  0  0  0
    5.0667   -3.7625    0.0000 C   0  0  0  0  0  0  0  0  0  0  0  0
    5.7750   -3.3417    0.0000 O   0  0  0  0  0  0  0  0  0  0  0  0
    4.3500   -5.0042    0.0000 C   0  0  0  0  0  0  0  0  0  0  0  0
    4.3500   -3.3500    0.0000 C   0  0  0  0  0  0  0  0  0  0  0  0
    3.6375   -4.5917    0.0000 C   0  0  0  0  0  0  0  0  0  0  0  0
    3.6375   -3.7625    0.0000 C   0  0  0  0  0  0  0  0  0  0  0  0
    5.7792   -5.8250    0.0000 O   0  0  0  0  0  0  0  0  0  0  0  0
    7.2000   -3.3375    0.0000 C   0  0  0  0  0  0  0  0  0  0  0  0
    4.3542   -5.8292    0.0000 O   0  0  0  0  0  0  0  0  0  0  0  0
    2.9250   -3.3542    0.0000 O   0  0  0  0  0  0  0  0  0  0  0  0
    7.1917   -2.5167    0.0000 C   0  0  0  0  0  0  0  0  0  0  0  0
    7.9167   -3.7500    0.0000 C   0  0  0  0  0  0  0  0  0  0  0  0
    8.6292   -3.3292    0.0000 C   0  0  0  0  0  0  0  0  0  0  0  0
    7.9042   -2.1000    0.0000 C   0  0  0  0  0  0  0  0  0  0  0  0
    8.6250   -2.5042    0.0000 C   0  0  0  0  0  0  0  0  0  0  0  0
  2  1  1  0
  3  2  1  0
  4  6  1  0
  5  1  2  0
  6  5  1  0
  7  1  1  0
  8  5  1  0
  9  7  2  0
 10  9  1  0
 11  2  2  0
 12  4  1  0
 13  7  1  0
 14 10  1  0
 15 12  2  0
 16 12  1  0
 17 16  2  0
 18 15  1  0
 19 17  1  0
 10  8  2  0
  4  3  2  0
 19 18  2  0
M  END
>  <ID>  (1900) 


>  <MOLENAME>  (1900) 
CHRYSIN

>  <therap>  (1900) 
diuretic

>  <ref>  (1900) 
J Chem Soc 1938:1320; Biochem J 59:58 (1955)

>  <cas#>  (1900) 
480-40-0

>  <source>  (1900) 
Ulnus sieboldiana, Flourensia resinosa, Oroxylum indicum, Pinus and Scutellaria spp.

>  <status>  (1900) 
experimental

>  <tradename>  (1900) 
nan

>  <SMILES>  (1900) 
O=c1cc(-c2ccccc2)oc2c1c(O)cc(O)c2

>  <standardized_failed>  (1900) 
False

$$$$

     RDKit          2D

 46 51  0  0  0  0  0  0  0  0999 V2000
    7.7917   -4.2917    0.0000 C   0  0  0  0  0  0  0  0  0  0  0  0
    8.5542   -3.8542    0.0000 C   0  0  0  0  0  0  0  0  0  0  0  0
    7.7917   -5.1917    0.0000 C   0  0  0  0  0  0  0  0  0  0  0  0
    6.2167   -5.1917    0.0000 C   0  0  0  0  0  0  0  0  0  0  0  0
    6.9792   -5.6417    0.0000 C   0  0  0  0  0  0  0  0  0  0  0  0
    6.2167   -4.2917    0.0000 C   0  0  0  0  0  0  0  0  0  0  0  0
    8.5667   -5.0042    0.0000 C   0  0  0  0  0  0  0  0  0  0  0  0
    6.9792   -3.8542    0.0000 O   0  0  0  0  0  0  0  0  0  0  0  0
    4.6667   -4.2917    0.0000 C   0  0  0  0  0  0  0  0  0  0  0  0
    4.6667   -5.1917    0.0000 C   0  0  0  0  0  0  0  0  0  0  0  0
    8.0917   -3.3042    0.0000 O   0  0  0  0  0  0  0  0  0  0  0  0
    5.4417   -5.6417    0.0000 C   0  0  0  0  0  0  0  0  0  0  0  0
    5.4417   -3.8542    0.0000 C   0  0  0  0  0  0  0  0  0  0  0  0
    8.5542   -5.6417    0.0000 C   0  0  0  0  0  0  0  0  0  0  0  0
    9.3292   -4.2917    0.0000 C   0  0  0  0  0  0  0  0  0  0  0  0
    7.5542   -3.5542    0.0000 C   0  0  0  0  0  0  0  0  0  0  0  0
    9.3292   -5.1917    0.0000 C   0  0  0  0  0  0  0  0  0  0  0  0
   10.1042   -5.7417    0.0000 C   0  0  0  0  0  0  0  0  0  0  0  0
    3.8917   -5.6417    0.0000 C   0  0  0  0  0  0  0  0  0  0  0  0
    3.8917   -3.8542    0.0000 O   0  0  0  0  0  0  0  0  0  0  0  0
    8.7292   -3.0250    0.0000 C   0  0  0  0  0  0  0  0  0  0  0  0
    8.0417   -2.2750    0.0000 C   0  0  0  0  0  0  0  0  0  0  0  0
    5.4417   -2.9417    0.0000 C   0  0  0  0  0  0  0  0  0  0  0  0
    9.6125   -1.0542    0.0000 C   0  0  0  0  0  0  0  0  0  0  0  0
    8.6042   -1.3417    0.0000 C   0  0  0  0  0  0  0  0  0  0  0  0
    3.1167   -5.1917    0.0000 C   0  0  0  0  0  0  0  0  0  0  0  0
    3.1167   -4.2917    0.0000 C   0  0  0  0  0  0  0  0  0  0  0  0
    4.6667   -2.5167    0.0000 C   0  0  0  0  0  0  0  0  0  0  0  0
    6.9792   -6.5417    0.0000 O   0  0  0  0  0  0  0  0  0  0  0  0
   10.1417   -3.8292    0.0000 O   0  0  0  0  0  0  0  0  0  0  0  0
    9.7917   -0.4042    0.0000 O   0  0  0  0  0  0  0  0  0  0  0  0
    4.6667   -1.6042    0.0000 C   0  0  0  0  0  0  0  0  0  0  0  0
    0.3292   -4.2875    0.0000 C   0  0  0  0  0  0  0  0  0  0  0  0
    1.0375   -3.8792    0.0000 C   0  0  0  0  0  0  0  0  0  0  0  0
    5.4417   -6.5417    0.0000 O   0  0  0  0  0  0  0  0  0  0  0  0
   10.3625   -1.5875    0.0000 O   0  0  0  0  0  0  0  0  0  0  0  0
    7.3542   -2.6167    0.0000 C   0  0  0  0  0  0  0  0  0  0  0  0
    6.7667   -3.3917    0.0000 C   0  0  0  0  0  0  0  0  0  0  0  0
    1.7167   -4.2917    0.0000 C   0  0  0  0  0  0  0  0  0  0  0  0
    2.4125   -3.8917    0.0000 C   0  0  0  0  0  0  0  0  0  0  0  0
    8.0417   -0.5292    0.0000 C   0  0  0  0  0  0  0  0  0  0  0  0
    3.1167   -3.3417    0.0000 C   0  0  0  0  0  0  0  0  0  0  0  0
    3.8917   -1.1667    0.0000 C   0  0  0  0  0  0  0  0  0  0  0  0
    5.4417   -1.1667    0.0000 C   0  0  0  0  0  0  0  0  0  0  0  0
    0.3542   -5.0042    0.0000 C   0  0  0  0  0  0  0  0  0  0  0  0
   -0.3625   -3.8792    0.0000 C   0  0  0  0  0  0  0  0  0  0  0  0
  2  1  1  0
  3  1  1  0
  4  6  2  0
  5  3  1  0
  6  8  1  0
  7  1  1  0
  8  1  1  0
  9 13  2  0
 10  9  1  0
 11  2  1  0
 12  4  1  0
 13  6  1  0
 14  3  2  0
 15  2  1  0
 16  7  1  0
 17 18  1  0
 18  7  1  0
 19 10  1  0
 20  9  1  0
 21  2  1  0
 22 21  1  0
 23 13  1  0
 24 25  1  0
 25 22  2  0
 26 27  1  0
 27 20  1  0
 28 23  1  0
 29  5  2  0
 30 15  2  0
 31 24  2  0
 32 28  2  0
 33 34  2  0
 34 39  1  0
 35 12  1  0
 36 24  1  0
 37 16  1  0
 38 16  1  0
 39 40  1  0
 40 27  1  0
 41 25  1  0
 42 27  1  0
 43 32  1  0
 44 32  1  0
 45 33  1  0
 46 33  1  0
 16 11  1  0
  4  5  1  0
 17 15  1  0
 14 17  1  0
 10 12  2  0
 19 26  2  0
M  END
>  <ID>  (1901) 


>  <MOLENAME>  (1901) 
GAMBOGIC ACID

>  <therap>  (1901) 
antiinflammatory, cytotoxic, inhibits HeLa cells in vitro;

>  <ref>  (1901) 
Tetrahedron 21: 1453 (1965); J Chem Soc(C) 1966:772; Tet Lett 1967:4201; Phytochemistry 41,: 815 (1996)

>  <cas#>  (1901) 
2752-65-0

>  <source>  (1901) 
Garcinia morella, G hanburyii; LD50(rat) 88 mg/kg ip

>  <status>  (1901) 
experimental

>  <tradename>  (1901) 
nan

>  <SMILES>  (1901) 
CC(C)=CCCC1(C)C=Cc2c(O)c3c(OC45C(=CC6CC4C(C)(C)OC5(C/C=C(/C)C(=O)O)C6=O)C3=O)c(CC=C(C)C)c2O1

>  <standardized_failed>  (1901) 
False

$$$$

     RDKit          2D

 13 13  0  0  0  0  0  0  0  0999 V2000
    3.2542   -0.3792    0.0000 C   0  0  0  0  0  0  0  0  0  0  0  0
    3.2542   -1.2125    0.0000 C   0  0  0  0  0  0  0  0  0  0  0  0
    2.5375    0.0333    0.0000 C   0  0  0  0  0  0  0  0  0  0  0  0
    2.5375   -1.6250    0.0000 C   0  0  0  0  0  0  0  0  0  0  0  0
    1.8250   -0.3875    0.0000 C   0  0  0  0  0  0  0  0  0  0  0  0
    3.9667    0.0333    0.0000 C   0  0  0  0  0  0  0  0  0  0  0  0
    1.8250   -1.2125    0.0000 C   0  0  0  0  0  0  0  0  0  0  0  0
    3.9625    0.8583    0.0000 O   0  0  0  0  0  0  0  0  0  0  0  0
    2.5292    0.8583    0.0000 O   0  0  0  0  0  0  0  0  0  0  0  0
    3.9667   -1.6250    0.0000 O   0  0  0  0  0  0  0  0  0  0  0  0
    1.1042   -1.6250    0.0000 O   0  0  0  0  0  0  0  0  0  0  0  0
    4.6792   -0.3750    0.0000 C   0  0  0  0  0  0  0  0  0  0  0  0
    0.3917   -1.2125    0.0000 C   0  0  0  0  0  0  0  0  0  0  0  0
  2  1  2  0
  3  1  1  0
  4  2  1  0
  5  3  2  0
  6  1  1  0
  7  5  1  0
  8  6  2  0
  9  3  1  0
 10  2  1  0
 11  7  1  0
 12  6  1  0
 13 11  1  0
  4  7  2  0
M  END
>  <ID>  (1902) 


>  <MOLENAME>  (1902) 
4-O-METHYLPHLORACETOPHENONE

>  <therap>  (1902) 
antifungal

>  <ref>  (1902) 
nan

>  <cas#>  (1902) 
7507-89-3

>  <source>  (1902) 
Prunus domesticus

>  <status>  (1902) 
experimental

>  <tradename>  (1902) 
nan

>  <SMILES>  (1902) 
COc1cc(O)c(C(C)=O)c(O)c1

>  <standardized_failed>  (1902) 
False

$$$$

     RDKit          2D

 21 23  0  0  0  0  0  0  0  0999 V2000
    1.2292   -1.9667    0.0000 C   0  0  0  0  0  0  0  0  0  0  0  0
    1.2292   -1.2125    0.0000 C   0  0  0  0  0  0  0  0  0  0  0  0
    0.5750   -2.3417    0.0000 C   0  0  0  0  0  0  0  0  0  0  0  0
    0.5750   -0.8292    0.0000 O   0  0  0  0  0  0  0  0  0  0  0  0
   -0.0833   -1.9667    0.0000 C   0  0  0  0  0  0  0  0  0  0  0  0
   -0.0833   -1.2125    0.0000 C   0  0  0  0  0  0  0  0  0  0  0  0
    1.8792   -0.8375    0.0000 C   0  0  0  0  0  0  0  0  0  0  0  0
    0.5750   -3.0917    0.0000 O   0  0  0  0  0  0  0  0  0  0  0  0
    1.8792   -2.3417    0.0000 O   0  0  0  0  0  0  0  0  0  0  0  0
    2.5292   -1.2125    0.0000 C   0  0  0  0  0  0  0  0  0  0  0  0
    1.8792   -0.0875    0.0000 C   0  0  0  0  0  0  0  0  0  0  0  0
    3.1750   -0.0875    0.0000 C   0  0  0  0  0  0  0  0  0  0  0  0
    2.5292    0.2875    0.0000 C   0  0  0  0  0  0  0  0  0  0  0  0
    3.1750   -0.8375    0.0000 C   0  0  0  0  0  0  0  0  0  0  0  0
   -0.7333   -2.3417    0.0000 C   0  0  0  0  0  0  0  0  0  0  0  0
   -0.7333   -0.8292    0.0000 C   0  0  0  0  0  0  0  0  0  0  0  0
    3.8250    0.2875    0.0000 O   0  0  0  0  0  0  0  0  0  0  0  0
    1.8792   -3.0917    0.0000 C   0  0  0  0  0  0  0  0  0  0  0  0
    4.4750   -0.0875    0.0000 C   0  0  0  0  0  0  0  0  0  0  0  0
   -1.3833   -1.9667    0.0000 C   0  0  0  0  0  0  0  0  0  0  0  0
   -1.3833   -1.2125    0.0000 C   0  0  0  0  0  0  0  0  0  0  0  0
  2  1  2  0
  3  1  1  0
  4  2  1  0
  5  3  1  0
  6  5  2  0
  7  2  1  0
  8  3  2  0
  9  1  1  0
 10  7  2  0
 11  7  1  0
 12 13  1  0
 13 11  2  0
 14 10  1  0
 15  5  1  0
 16  6  1  0
 17 12  1  0
 18  9  1  0
 19 17  1  0
 20 15  2  0
 21 20  1  0
  4  6  1  0
 14 12  2  0
 21 16  2  0
M  END
>  <ID>  (1903) 


>  <MOLENAME>  (1903) 
3.4'-DIMETHOXYFLAVONE

>  <therap>  (1903) 
nan

>  <ref>  (1903) 
nan

>  <cas#>  (1903) 
nan

>  <source>  (1903) 
derivative Millettia flowers

>  <status>  (1903) 
undetermined activity

>  <tradename>  (1903) 
nan

>  <SMILES>  (1903) 
COc1ccc(-c2c(OC)c(=O)c3c(cccc3)o2)cc1

>  <standardized_failed>  (1903) 
False

$$$$

     RDKit          2D

 31 36  0  0  0  0  0  0  0  0999 V2000
    3.1750   -1.5167    0.0000 C   0  0  0  0  0  0  0  0  0  0  0  0
    5.0375   -0.9042    0.0000 C   0  0  0  0  0  0  0  0  0  0  0  0
    3.1750   -2.2667    0.0000 C   0  0  0  0  0  0  0  0  0  0  0  0
    3.8875   -1.2875    0.0000 C   0  0  0  0  0  0  0  0  0  0  0  0
    1.8750   -2.2667    0.0000 C   0  0  0  0  0  0  0  0  0  0  0  0
    2.5167   -1.1417    0.0000 C   0  0  0  0  0  0  0  0  0  0  0  0
    1.2292   -2.6417    0.0000 C   0  0  0  0  0  0  0  0  0  0  0  0
    4.3250   -1.8792    0.0000 C   0  0  0  0  0  0  0  0  0  0  0  0
    2.5250   -2.6417    0.0000 C   0  0  0  0  0  0  0  0  0  0  0  0
    5.0375   -1.6500    0.0000 O   0  0  0  0  0  0  0  0  0  0  0  0
    1.8750   -1.5167    0.0000 C   0  0  0  0  0  0  0  0  0  0  0  0
    4.3250   -0.6792    0.0000 C   0  0  0  0  0  0  0  0  0  0  0  0
    3.8875   -2.4917    0.0000 C   0  0  0  0  0  0  0  0  0  0  0  0
    5.4750   -1.5292    0.0000 O   0  0  0  0  0  0  0  0  0  0  0  0
    1.2292   -3.3917    0.0000 C   0  0  0  0  0  0  0  0  0  0  0  0
    0.5792   -2.2667    0.0000 C   0  0  0  0  0  0  0  0  0  0  0  0
    2.5250   -3.3917    0.0000 C   0  0  0  0  0  0  0  0  0  0  0  0
    5.4750   -0.2375    0.0000 C   0  0  0  0  0  0  0  0  0  0  0  0
    2.5042   -0.3917    0.0000 O   0  0  0  0  0  0  0  0  0  0  0  0
    1.8750   -3.7667    0.0000 C   0  0  0  0  0  0  0  0  0  0  0  0
    0.5792   -3.7667    0.0000 C   0  0  0  0  0  0  0  0  0  0  0  0
    3.1625   -0.8417    0.0000 C   0  0  0  0  0  0  0  0  0  0  0  0
    6.2250   -1.5292    0.0000 C   0  0  0  0  0  0  0  0  0  0  0  0
   -0.0708   -2.6417    0.0000 C   0  0  0  0  0  0  0  0  0  0  0  0
   -0.0708   -3.3917    0.0000 C   0  0  0  0  0  0  0  0  0  0  0  0
    1.2292   -1.8917    0.0000 C   0  0  0  0  0  0  0  0  0  0  0  0
    6.2250   -0.2375    0.0000 C   0  0  0  0  0  0  0  0  0  0  0  0
    6.6000   -0.8875    0.0000 C   0  0  0  0  0  0  0  0  0  0  0  0
   -0.7208   -3.7667    0.0000 O   0  0  0  0  0  0  0  0  0  0  0  0
    4.3167   -0.1292    0.0000 C   0  0  0  0  0  0  0  0  0  0  0  0
    7.3500   -0.8875    0.0000 C   0  0  0  0  0  0  0  0  0  0  0  0
  2 12  1  0
  3  1  1  0
  4  1  1  0
  5 11  1  0
  6  1  1  0
  7  5  1  0
  8  4  1  0
  9  3  1  0
 10  8  1  0
 11  6  1  0
 12  4  1  0
 13  3  1  0
 14  2  1  0
 15  7  1  0
 16  7  1  0
 17  9  1  0
 18  2  1  0
 19  6  2  0
 20 17  1  0
 15 21  1  1
  1 22  1  1
 23 14  1  0
 24 16  1  0
 25 24  1  0
  7 26  1  1
 27 18  1  0
 28 27  1  0
 25 29  1  1
 30 12  1  0
 31 28  1  0
  8 13  1  0
  5  9  1  0
  2 10  1  0
 20 15  1  0
 28 23  1  0
 25 21  1  0
M  END
>  <ID>  (1904) 


>  <MOLENAME>  (1904) 
HECOGENIN

>  <therap>  (1904) 
antiinflammatory

>  <ref>  (1904) 
Planta Med 63:199 (1997)

>  <cas#>  (1904) 
467-55-0

>  <source>  (1904) 
Agave and Yucca spp

>  <status>  (1904) 
experimental

>  <tradename>  (1904) 
nan

>  <SMILES>  (1904) 
CC1CCC2(OC1)OC1CC3C4CC[C@H]5C[C@@H](O)CC[C@]5(C)C4CC(=O)[C@]3(C)C1C2C

>  <standardized_failed>  (1904) 
False

$$$$

     RDKit          2D

 22 25  0  0  0  0  0  0  0  0999 V2000
    6.9000   -3.5167    0.0000 C   0  0  0  0  0  0  0  0  0  0  0  0
    6.9000   -2.6917    0.0000 C   0  0  0  0  0  0  0  0  0  0  0  0
    6.1792   -2.2792    0.0000 C   0  0  0  0  0  0  0  0  0  0  0  0
    5.4667   -3.5167    0.0000 C   0  0  0  0  0  0  0  0  0  0  0  0
    5.4667   -2.6917    0.0000 C   0  0  0  0  0  0  0  0  0  0  0  0
    6.1792   -3.9292    0.0000 C   0  0  0  0  0  0  0  0  0  0  0  0
    4.7542   -3.9292    0.0000 C   0  0  0  0  0  0  0  0  0  0  0  0
    7.6792   -3.7750    0.0000 O   0  0  0  0  0  0  0  0  0  0  0  0
    4.7542   -4.7625    0.0000 C   0  0  0  0  0  0  0  0  0  0  0  0
    6.1792   -4.7625    0.0000 C   0  0  0  0  0  0  0  0  0  0  0  0
    5.4667   -5.1750    0.0000 C   0  0  0  0  0  0  0  0  0  0  0  0
    4.0417   -5.1750    0.0000 C   0  0  0  0  0  0  0  0  0  0  0  0
    7.6792   -2.4375    0.0000 C   0  0  0  0  0  0  0  0  0  0  0  0
    6.1750   -1.4542    0.0000 O   0  0  0  0  0  0  0  0  0  0  0  0
    4.7542   -2.2792    0.0000 O   0  0  0  0  0  0  0  0  0  0  0  0
    8.1667   -3.1042    0.0000 C   0  0  0  0  0  0  0  0  0  0  0  0
    4.0417   -3.5167    0.0000 C   0  0  0  0  0  0  0  0  0  0  0  0
    3.3250   -4.7625    0.0000 C   0  0  0  0  0  0  0  0  0  0  0  0
    3.3250   -3.9292    0.0000 C   0  0  0  0  0  0  0  0  0  0  0  0
    3.5167   -5.7167    0.0000 C   0  0  0  0  0  0  0  0  0  0  0  0
    4.6250   -5.7542    0.0000 C   0  0  0  0  0  0  0  0  0  0  0  0
    7.9375   -1.6500    0.0000 C   0  0  0  0  0  0  0  0  0  0  0  0
  2  1  2  0
  3  2  1  0
  4  6  2  0
  5  4  1  0
  6  1  1  0
  7  4  1  0
  8  1  1  0
  9 11  1  0
 10  6  1  0
 11 10  2  0
 12  9  1  0
 13  2  1  0
 14  3  2  0
 15  5  2  0
 16  8  1  0
 17  7  1  0
 18 12  1  0
 19 17  1  0
 20 12  1  0
 21 12  1  0
 13 22  1  1
 13 16  1  0
  5  3  1  0
  9  7  2  0
 18 19  1  0
M  END
>  <ID>  (1905) 


>  <MOLENAME>  (1905) 
CRYPTOTANSHINONE

>  <therap>  (1905) 
inhibits angiogenesis

>  <ref>  (1905) 
Chem Pharm Bull 10:112 (1962); Planta Med 24:190 (1973); Exp Mol Med 37:133(2005); 

>  <cas#>  (1905) 
35825-57-1

>  <source>  (1905) 
Salvia miltiorrhiza, Rosmarinus officinalis 

>  <status>  (1905) 
experimental

>  <tradename>  (1905) 
nan

>  <SMILES>  (1905) 
C[C@H]1COC2=C1C(=O)C(=O)c1c2ccc2c1CCCC2(C)C

>  <standardized_failed>  (1905) 
False

$$$$

     RDKit          2D

 15 16  0  0  0  0  0  0  0  0999 V2000
    0.1667   -2.5000    0.0000 N   0  0  0  0  0  0  0  0  0  0  0  0
   -0.4875   -2.1250    0.0000 C   0  0  0  0  0  0  0  0  0  0  0  0
    0.8167   -2.1250    0.0000 C   0  0  0  0  0  0  0  0  0  0  0  0
   -0.4875   -1.3667    0.0000 C   0  0  0  0  0  0  0  0  0  0  0  0
    0.1667   -0.9917    0.0000 C   0  0  0  0  0  0  0  0  0  0  0  0
    0.8167   -1.3667    0.0000 C   0  0  0  0  0  0  0  0  0  0  0  0
    1.4667   -2.5000    0.0000 C   0  0  0  0  0  0  0  0  0  0  0  0
   -1.1458   -2.5000    0.0000 C   0  0  0  0  0  0  0  0  0  0  0  0
    2.1167   -2.1250    0.0000 O   0  0  0  0  0  0  0  0  0  0  0  0
    0.1667   -0.2417    0.0000 O   0  0  0  0  0  0  0  0  0  0  0  0
    1.4667   -3.2500    0.0000 O   0  0  0  0  0  0  0  0  0  0  0  0
   -1.1458   -3.2500    0.0000 O   0  0  0  0  0  0  0  0  0  0  0  0
   -1.1458   -0.9917    0.0000 C   0  0  0  0  0  0  0  0  0  0  0  0
   -1.7875   -1.3667    0.0000 C   0  0  0  0  0  0  0  0  0  0  0  0
   -1.7875   -2.1250    0.0000 C   0  0  0  0  0  0  0  0  0  0  0  0
  2  1  2  0
  3  1  1  0
  4  2  1  0
  5  6  1  0
  6  3  2  0
  7  3  1  0
  8  2  1  0
  9  7  2  0
 10  5  1  0
 11  7  1  0
 12  8  1  0
 13  4  1  0
 14 15  1  0
 15  8  2  0
  4  5  2  0
 14 13  2  0
M  END
>  <ID>  (1906) 


>  <MOLENAME>  (1906) 
XANTHURENIC ACID

>  <therap>  (1906) 
caspase activator, guanylyl cyclase stimulant

>  <ref>  (1906) 
Mol Microbiol 42:553 (2001); BMC Physiology 1:7 (2001)

>  <cas#>  (1906) 
59-00-7

>  <source>  (1906) 
pathological metabolite of tryptophan and kynurenine

>  <status>  (1906) 
experimental

>  <tradename>  (1906) 
nan

>  <SMILES>  (1906) 
O=C(O)c1cc(O)c2cccc(O)c2n1

>  <standardized_failed>  (1906) 
False

$$$$

     RDKit          2D

 19 21  0  0  0  0  0  0  0  0999 V2000
    2.3000   -3.3917    0.0000 C   0  0  0  0  0  0  0  0  0  0  0  0
    2.9542   -3.0167    0.0000 O   0  0  0  0  0  0  0  0  0  0  0  0
    3.6042   -3.3917    0.0000 C   0  0  0  0  0  0  0  0  0  0  0  0
    2.3000   -4.1500    0.0000 C   0  0  0  0  0  0  0  0  0  0  0  0
    3.6042   -4.1500    0.0000 C   0  0  0  0  0  0  0  0  0  0  0  0
    2.9542   -4.5250    0.0000 C   0  0  0  0  0  0  0  0  0  0  0  0
    1.6417   -3.0167    0.0000 C   0  0  0  0  0  0  0  0  0  0  0  0
    1.6417   -4.5250    0.0000 C   0  0  0  0  0  0  0  0  0  0  0  0
    1.0000   -3.3917    0.0000 C   0  0  0  0  0  0  0  0  0  0  0  0
    4.2542   -3.0167    0.0000 C   0  0  0  0  0  0  0  0  0  0  0  0
    2.9542   -5.2750    0.0000 O   0  0  0  0  0  0  0  0  0  0  0  0
    1.0000   -4.1500    0.0000 C   0  0  0  0  0  0  0  0  0  0  0  0
    1.6417   -2.2667    0.0000 O   0  0  0  0  0  0  0  0  0  0  0  0
    0.3417   -3.0167    0.0000 O   0  0  0  0  0  0  0  0  0  0  0  0
    4.2542   -2.2667    0.0000 C   0  0  0  0  0  0  0  0  0  0  0  0
    4.9042   -3.3917    0.0000 C   0  0  0  0  0  0  0  0  0  0  0  0
    5.5542   -3.0167    0.0000 C   0  0  0  0  0  0  0  0  0  0  0  0
    4.9042   -1.8917    0.0000 C   0  0  0  0  0  0  0  0  0  0  0  0
    5.5542   -2.2667    0.0000 C   0  0  0  0  0  0  0  0  0  0  0  0
  2  1  1  0
  3  2  1  0
  4  1  2  0
  5  6  1  0
  6  4  1  0
  7  1  1  0
  8  4  1  0
  9  7  2  0
 10  3  1  0
 11  6  2  0
 12  9  1  0
 13  7  1  0
 14  9  1  0
 15 10  2  0
 16 10  1  0
 17 16  2  0
 18 15  1  0
 19 17  1  0
  8 12  2  0
  3  5  2  0
 19 18  2  0
M  END
>  <ID>  (1907) 


>  <MOLENAME>  (1907) 
7.8-DIHYDROXYFLAVONE

>  <therap>  (1907) 
vascular protectant, antihaemorrhagic, tyr kinase B agonist

>  <ref>  (1907) 
J Chem Soc 1939: 956, 958; 1956:4170; PNAS 107:2687 (2009)

>  <cas#>  (1907) 
38183-03-8

>  <source>  (1907) 
Godmania aesculifolia

>  <status>  (1907) 
experimental

>  <tradename>  (1907) 
nan

>  <SMILES>  (1907) 
O=c1cc(-c2ccccc2)oc2c1ccc(O)c2O

>  <standardized_failed>  (1907) 
False

$$$$

     RDKit          2D

 14 14  0  0  0  0  0  0  0  0999 V2000
    4.8792   -0.9875    0.0000 C   0  0  0  0  0  0  0  0  0  0  0  0
    4.8792   -1.8125    0.0000 C   0  0  0  0  0  0  0  0  0  0  0  0
    4.8875   -4.2917    0.0000 C   0  0  0  0  0  0  0  0  0  0  0  0
    4.1667   -2.2250    0.0000 C   0  0  0  0  0  0  0  0  0  0  0  0
    4.1667   -4.7042    0.0000 C   0  0  0  0  0  0  0  0  0  0  0  0
    4.8875   -3.4625    0.0000 C   0  0  0  0  0  0  0  0  0  0  0  0
    4.1625   -0.5750    0.0000 O   0  0  0  0  0  0  0  0  0  0  0  0
    4.1667   -3.0500    0.0000 C   0  0  0  0  0  0  0  0  0  0  0  0
    3.4542   -4.2917    0.0000 C   0  0  0  0  0  0  0  0  0  0  0  0
    5.5917   -0.5667    0.0000 O   0  0  0  0  0  0  0  0  0  0  0  0
    3.4542   -3.4625    0.0000 C   0  0  0  0  0  0  0  0  0  0  0  0
    5.6042   -4.7042    0.0000 O   0  0  0  0  0  0  0  0  0  0  0  0
    4.1667   -5.5292    0.0000 O   0  0  0  0  0  0  0  0  0  0  0  0
    5.6042   -5.5292    0.0000 C   0  0  0  0  0  0  0  0  0  0  0  0
  2  1  1  0
  3  6  2  0
  4  2  2  0
  5  9  2  0
  6  8  1  0
  7  1  2  0
  8  4  1  0
  9 11  1  0
 10  1  1  0
 11  8  2  0
 12  3  1  0
 13  5  1  0
 14 12  1  0
  3  5  1  0
M  END
>  <ID>  (1908) 


>  <MOLENAME>  (1908) 
FERULIC ACID

>  <therap>  (1908) 
antineoplastic, choleretic, food preservative

>  <ref>  (1908) 
J Org Chem 16: 216 (1951)

>  <cas#>  (1908) 
1135-24-6

>  <source>  (1908) 
widely distributed in plants

>  <status>  (1908) 
experimental

>  <tradename>  (1908) 
nan

>  <SMILES>  (1908) 
COc1cc(/C=C/C(=O)O)ccc1O

>  <standardized_failed>  (1908) 
False

$$$$

     RDKit          2D

 27 27  0  0  0  0  0  0  0  0999 V2000
    1.7875   -1.7542    0.0000 C   0  0  0  0  0  0  0  0  0  0  0  0
    2.1917   -2.4667    0.0000 C   0  0  0  0  0  0  0  0  0  0  0  0
    2.1917   -1.0375    0.0000 C   0  0  0  0  0  0  0  0  0  0  0  0
    3.0250   -1.0417    0.0000 C   0  0  0  0  0  0  0  0  0  0  0  0
    3.0167   -2.4667    0.0000 C   0  0  0  0  0  0  0  0  0  0  0  0
    3.4292   -1.7542    0.0000 C   0  0  0  0  0  0  0  0  0  0  0  0
    0.1375   -1.7542    0.0000 C   0  0  0  0  0  0  0  0  0  0  0  0
    0.9625   -1.7542    0.0000 O   0  0  0  0  0  0  0  0  0  0  0  0
   -0.2708   -1.0375    0.0000 O   0  0  0  0  0  0  0  0  0  0  0  0
   -2.7500   -1.0417    0.0000 C   0  0  0  0  0  0  0  0  0  0  0  0
   -2.3375   -1.7542    0.0000 N   0  0  0  0  0  0  0  0  0  0  0  0
   -1.5125   -1.7542    0.0000 C   0  0  0  0  0  0  0  0  0  0  0  0
   -3.5750   -1.0417    0.0000 C   0  0  0  0  0  0  0  0  0  0  0  0
   -1.0958   -2.4667    0.0000 C   0  0  0  0  0  0  0  0  0  0  0  0
   -0.2708   -2.4667    0.0000 C   0  0  0  0  0  0  0  0  0  0  0  0
   -1.0958   -1.0375    0.0000 C   0  0  0  0  0  0  0  0  0  0  0  0
   -2.3458   -0.3250    0.0000 N   0  0  0  0  0  0  0  0  0  0  0  0
   -3.9958   -0.3292    0.0000 O   0  0  0  0  0  0  0  0  0  0  0  0
    1.7792   -3.1792    0.0000 O   0  0  0  0  0  0  0  0  0  0  0  0
    1.7792   -0.3250    0.0000 O   0  0  0  0  0  0  0  0  0  0  0  0
    3.4292   -3.1875    0.0000 O   0  0  0  0  0  0  0  0  0  0  0  0
    3.4375   -0.3292    0.0000 O   0  0  0  0  0  0  0  0  0  0  0  0
    4.2542   -1.7625    0.0000 O   0  0  0  0  0  0  0  0  0  0  0  0
    0.1417   -3.1792    0.0000 N   0  0  0  0  0  0  0  0  0  0  0  0
   -3.9875   -1.7542    0.0000 O   0  0  0  0  0  0  0  0  0  0  0  0
   -3.5958   -3.2750    0.0000 Cl  0  0  0  0  0  0  0  0  0  0  0  0
   -1.5083   -0.3250    0.0000 C   0  0  0  0  0  0  0  0  0  0  0  0
  2  1  1  0
  3  1  1  0
  4  3  1  0
  5  2  1  0
  6  4  1  0
  7  8  1  6
  1  8  1  1
  9  7  1  0
 10 11  1  0
 12 11  1  6
 12 14  1  0
 13 10  1  0
 14 15  1  0
 15  7  1  0
 16  9  1  0
 17 10  2  0
 18 13  2  0
  2 19  1  6
  3 20  1  6
  5 21  1  6
  4 22  1  1
  6 23  1  1
 15 24  1  1
 25 13  1  0
 16 27  1  1
  6  5  1  0
 12 16  1  0
M  END
>  <ID>  (1909) 


>  <MOLENAME>  (1909) 
KASUGAMYCIN HYDROCHLORIDE

>  <therap>  (1909) 
antifungal

>  <ref>  (1909) 
J Antibiot Ser A 18:101 (1965); Tet Lett 1966:1239

>  <cas#>  (1909) 
19408-46-9, 6980-18-3 (base)

>  <source>  (1909) 
Streptomyces kasugaensis

>  <status>  (1909) 
agricultural use

>  <tradename>  (1909) 
nan

>  <SMILES>  (1909) 
C[C@H]1O[C@H](O[C@@H]2[C@@H](O)[C@@H](O)[C@H](O)[C@H](O)[C@H]2O)[C@@H](N)C[C@@H]1NC(=N)C(=O)O

>  <standardized_failed>  (1909) 
False

$$$$

     RDKit          2D

 22 24  0  0  0  0  0  0  0  0999 V2000
    5.9375   -3.6750    0.0000 C   0  0  0  0  0  0  0  0  0  0  0  0
    5.9417   -4.5042    0.0000 C   0  0  0  0  0  0  0  0  0  0  0  0
    5.2292   -4.9167    0.0000 C   0  0  0  0  0  0  0  0  0  0  0  0
    4.5125   -4.5042    0.0000 C   0  0  0  0  0  0  0  0  0  0  0  0
    5.2167   -3.2667    0.0000 O   0  0  0  0  0  0  0  0  0  0  0  0
    4.5125   -3.6792    0.0000 C   0  0  0  0  0  0  0  0  0  0  0  0
    6.6417   -3.2542    0.0000 C   0  0  0  0  0  0  0  0  0  0  0  0
    3.7917   -4.9250    0.0000 C   0  0  0  0  0  0  0  0  0  0  0  0
    6.6417   -2.4375    0.0000 C   0  0  0  0  0  0  0  0  0  0  0  0
    3.7917   -3.2667    0.0000 C   0  0  0  0  0  0  0  0  0  0  0  0
    3.0792   -4.5042    0.0000 C   0  0  0  0  0  0  0  0  0  0  0  0
    7.3625   -3.6667    0.0000 C   0  0  0  0  0  0  0  0  0  0  0  0
    7.3500   -2.0167    0.0000 C   0  0  0  0  0  0  0  0  0  0  0  0
    5.2292   -5.7417    0.0000 O   0  0  0  0  0  0  0  0  0  0  0  0
    3.0792   -3.6875    0.0000 C   0  0  0  0  0  0  0  0  0  0  0  0
    6.6542   -4.9125    0.0000 O   0  0  0  0  0  0  0  0  0  0  0  0
    8.0667   -2.4292    0.0000 C   0  0  0  0  0  0  0  0  0  0  0  0
    3.8000   -5.7500    0.0000 O   0  0  0  0  0  0  0  0  0  0  0  0
    5.9167   -2.0292    0.0000 O   0  0  0  0  0  0  0  0  0  0  0  0
    8.0750   -3.2542    0.0000 C   0  0  0  0  0  0  0  0  0  0  0  0
    2.3667   -3.2750    0.0000 O   0  0  0  0  0  0  0  0  0  0  0  0
    8.7792   -2.0042    0.0000 O   0  0  0  0  0  0  0  0  0  0  0  0
  2  1  2  0
  3  2  1  0
  4  6  2  0
  5  1  1  0
  6  5  1  0
  7  1  1  0
  8  4  1  0
  9  7  2  0
 10  6  1  0
 11 15  1  0
 12  7  1  0
 13  9  1  0
 14  3  2  0
 15 10  2  0
 16  2  1  0
 17 20  1  0
 18  8  1  0
 19  9  1  0
 20 12  2  0
 21 15  1  0
 22 17  1  0
  3  4  1  0
 17 13  2  0
  8 11  2  0
M  END
>  <ID>  (1910) 


>  <MOLENAME>  (1910) 
MORIN

>  <therap>  (1910) 
P450 and ATPase inhibitor

>  <ref>  (1910) 
J Chem Soc 67: 649 (1895)

>  <cas#>  (1910) 
480-16-0

>  <source>  (1910) 
Chlorophora tinctoria

>  <status>  (1910) 
experimental

>  <tradename>  (1910) 
nan

>  <SMILES>  (1910) 
O=c1c(O)c(-c2c(O)cc(O)cc2)oc2c1c(O)cc(O)c2

>  <standardized_failed>  (1910) 
False

$$$$

     RDKit          2D

 16 16  0  0  0  0  0  0  0  0999 V2000
    2.5917   -1.0042    0.0000 N   0  0  0  0  0  0  0  0  0  0  0  0
    4.7167   -0.4167    0.0000 C   0  0  0  0  0  0  0  0  0  0  0  0
    5.2042    0.2500    0.0000 C   0  0  0  0  0  0  0  0  0  0  0  0
    3.4125   -1.0042    0.0000 C   0  0  0  0  0  0  0  0  0  0  0  0
    5.0542   -1.1750    0.0000 N   0  0  0  0  0  0  0  0  0  0  0  0
    5.8000   -1.5542    0.0000 C   0  0  0  0  0  0  0  0  0  0  0  0
    3.9000   -0.3292    0.0000 C   0  0  0  0  0  0  0  0  0  0  0  0
    3.0042   -2.2667    0.0000 N   0  0  0  0  0  0  0  0  0  0  0  0
    2.3375   -1.7875    0.0000 C   0  0  0  0  0  0  0  0  0  0  0  0
    3.6667   -1.7875    0.0000 C   0  0  0  0  0  0  0  0  0  0  0  0
    4.8667    1.0083    0.0000 O   0  0  0  0  0  0  0  0  0  0  0  0
    5.8042   -2.3792    0.0000 C   0  0  0  0  0  0  0  0  0  0  0  0
    6.5125   -1.1417    0.0000 O   0  0  0  0  0  0  0  0  0  0  0  0
    6.0292    0.1625    0.0000 O   0  0  0  0  0  0  0  0  0  0  0  0
    5.0875   -3.6167    0.0000 N   0  0  0  0  0  0  0  0  0  0  0  0
    5.0792   -2.7917    0.0000 C   0  0  0  0  0  0  0  0  0  0  0  0
  2  7  1  1
  3  2  1  0
  4  1  1  0
  2  5  1  0
  6  5  1  0
  7  4  1  0
  8  9  1  0
  9  1  2  0
 10  4  2  0
 11  3  2  0
 12  6  1  0
 13  6  2  0
 14  3  1  0
 15 16  1  0
 16 12  1  0
  8 10  1  0
M  END
>  <ID>  (1911) 


>  <MOLENAME>  (1911) 
CARNOSINE

>  <therap>  (1911) 
nan

>  <ref>  (1911) 
Science 184: 909 (1974); Proc Soc Exp Biol Med 158: 402 (1978)

>  <cas#>  (1911) 
305-84-0

>  <source>  (1911) 
mammalian skeletal muscle

>  <status>  (1911) 
undetermined activity

>  <tradename>  (1911) 
nan

>  <SMILES>  (1911) 
NCCC(=O)N[C@@H](Cc1c[nH]cn1)C(=O)O

>  <standardized_failed>  (1911) 
False

$$$$

     RDKit          2D

 15 13  0  0  0  0  0  0  0  0999 V2000
    2.4667    0.2333    0.0000 C   0  0  0  0  0  0  0  0  0  0  0  0
    3.0375    0.5583    0.0000 C   0  0  0  0  0  0  0  0  0  0  0  0
    3.6042    0.2333    0.0000 C   0  0  0  0  0  0  0  0  0  0  0  0
    1.8917    0.5583    0.0000 C   0  0  0  0  0  0  0  0  0  0  0  0
    1.8917    1.2208    0.0000 O   0  0  0  0  0  0  0  0  0  0  0  0
    3.6042   -0.4292    0.0000 O   0  0  0  0  0  0  0  0  0  0  0  0
    2.4667   -0.4292    0.0000 O   0  0  0  0  0  0  0  0  0  0  0  0
    3.0375    1.2208    0.0000 O   0  0  0  0  0  0  0  0  0  0  0  0
    4.1792    0.5583    0.0000 O   0  0  0  0  0  0  0  0  0  0  0  0
    1.3167    0.2333    0.0000 O   0  0  0  0  0  0  0  0  0  0  0  0
    1.3375   -1.6917    0.0000 N   0  0  0  0  0  0  0  0  0  0  0  0
    4.1917   -1.6917    0.0000 N   0  0  0  0  0  0  0  0  0  0  0  0
    2.7667   -1.6917    0.0000 C   0  0  0  0  0  0  0  0  0  0  0  0
    3.4792   -2.1042    0.0000 C   0  0  0  0  0  0  0  0  0  0  0  0
    2.0542   -2.1042    0.0000 C   0  0  0  0  0  0  0  0  0  0  0  0
  2  1  1  0
  3  2  1  0
  4  1  1  0
  5  4  2  0
  6  3  2  0
  7  1  1  0
  8  2  1  0
  9  3  1  0
 10  4  1  0
 12 14  1  0
 13 15  1  0
 14 13  1  0
 15 11  1  0
M  END
>  <ID>  (1912) 


>  <MOLENAME>  (1912) 
CADAVERINE TARTRATE

>  <therap>  (1912) 
nan

>  <ref>  (1912) 
nan

>  <cas#>  (1912) 
462-94-2(base)

>  <source>  (1912) 
putrifaction of lysine; sectrtion of the fox Vulpes vulpes

>  <status>  (1912) 
undetermined activity

>  <tradename>  (1912) 
nan

>  <SMILES>  (1912) 
NCCCN

>  <standardized_failed>  (1912) 
False

$$$$

     RDKit          2D

 21 24  0  0  0  0  0  0  0  0999 V2000
    2.1667   -0.9792    0.0000 C   0  0  0  0  0  0  0  0  0  0  0  0
    4.7042    0.4583    0.0000 C   0  0  0  0  0  0  0  0  0  0  0  0
    2.1667   -1.9750    0.0000 C   0  0  0  0  0  0  0  0  0  0  0  0
    3.0042   -0.5042    0.0000 C   0  0  0  0  0  0  0  0  0  0  0  0
    4.7042   -0.5375    0.0000 C   0  0  0  0  0  0  0  0  0  0  0  0
    3.8667   -1.0167    0.0000 C   0  0  0  0  0  0  0  0  0  0  0  0
    3.0042   -2.4542    0.0000 C   0  0  0  0  0  0  0  0  0  0  0  0
    5.6292    0.7250    0.0000 C   0  0  0  0  0  0  0  0  0  0  0  0
    3.8667    0.9333    0.0000 C   0  0  0  0  0  0  0  0  0  0  0  0
    3.8667   -1.9750    0.0000 C   0  0  0  0  0  0  0  0  0  0  0  0
    3.0042    0.4583    0.0000 C   0  0  0  0  0  0  0  0  0  0  0  0
    1.3292   -0.5042    0.0000 C   0  0  0  0  0  0  0  0  0  0  0  0
    5.6292   -0.8042    0.0000 C   0  0  0  0  0  0  0  0  0  0  0  0
    1.3292   -2.4542    0.0000 C   0  0  0  0  0  0  0  0  0  0  0  0
    6.1667   -0.0250    0.0000 C   0  0  0  0  0  0  0  0  0  0  0  0
    5.9667    1.6583    0.0000 O   0  0  0  0  0  0  0  0  0  0  0  0
    0.4917   -1.0167    0.0000 C   0  0  0  0  0  0  0  0  0  0  0  0
    0.4917   -1.9417    0.0000 C   0  0  0  0  0  0  0  0  0  0  0  0
    2.1667   -0.0417    0.0000 C   0  0  0  0  0  0  0  0  0  0  0  0
    4.7042    1.4125    0.0000 C   0  0  0  0  0  0  0  0  0  0  0  0
   -0.3708   -2.4250    0.0000 O   0  0  0  0  0  0  0  0  0  0  0  0
  2  9  1  0
  3  1  1  0
  4  1  1  0
  5  6  1  0
  6  4  1  0
  7  3  2  0
  8  2  1  0
  9 11  1  0
 10  6  1  0
 11  4  1  0
 12  1  1  0
 13  5  1  0
 14  3  1  0
 15 13  1  0
 16  8  2  0
 17 12  1  0
 18 17  1  0
  1 19  1  1
  2 20  1  1
 18 21  1  1
 18 14  1  0
  7 10  1  0
  5  2  1  0
 15  8  1  0
M  END
>  <ID>  (1913) 


>  <MOLENAME>  (1913) 
DEHYDROEPIANDROSTERONE

>  <therap>  (1913) 
nan

>  <ref>  (1913) 
Helv Chim Acta 18: 61 (1935)

>  <cas#>  (1913) 
53-43-0

>  <source>  (1913) 
semisynthetic

>  <status>  (1913) 
undetermined activity

>  <tradename>  (1913) 
nan

>  <SMILES>  (1913) 
C[C@]12CCC3C(CC=C4C[C@@H](O)CC[C@@]43C)C1CCC2=O

>  <standardized_failed>  (1913) 
False

$$$$

     RDKit          2D

 18 19  0  0  0  0  0  0  0  0999 V2000
    4.5917   -2.6250    0.0000 C   0  0  0  0  0  0  0  0  0  0  0  0
    4.5917   -3.4500    0.0000 C   0  0  0  0  0  0  0  0  0  0  0  0
    3.8792   -2.2042    0.0000 C   0  0  0  0  0  0  0  0  0  0  0  0
    3.1750   -2.6250    0.0000 C   0  0  0  0  0  0  0  0  0  0  0  0
    5.3125   -2.2125    0.0000 C   0  0  0  0  0  0  0  0  0  0  0  0
    3.1750   -3.4500    0.0000 C   0  0  0  0  0  0  0  0  0  0  0  0
    3.8792   -3.8542    0.0000 C   0  0  0  0  0  0  0  0  0  0  0  0
    3.8792   -1.3792    0.0000 O   0  0  0  0  0  0  0  0  0  0  0  0
    5.3042   -1.3875    0.0000 O   0  0  0  0  0  0  0  0  0  0  0  0
    6.0250   -2.6292    0.0000 C   0  0  0  0  0  0  0  0  0  0  0  0
    3.8792   -4.6792    0.0000 O   0  0  0  0  0  0  0  0  0  0  0  0
    2.4542   -3.8542    0.0000 O   0  0  0  0  0  0  0  0  0  0  0  0
    6.0167   -3.4542    0.0000 C   0  0  0  0  0  0  0  0  0  0  0  0
    6.7375   -2.2167    0.0000 C   0  0  0  0  0  0  0  0  0  0  0  0
    1.7417   -3.4417    0.0000 C   0  0  0  0  0  0  0  0  0  0  0  0
    6.7292   -3.8667    0.0000 C   0  0  0  0  0  0  0  0  0  0  0  0
    7.4500   -2.6292    0.0000 C   0  0  0  0  0  0  0  0  0  0  0  0
    7.4500   -3.4542    0.0000 C   0  0  0  0  0  0  0  0  0  0  0  0
  2  1  2  0
  3  1  1  0
  4  3  1  0
  5  1  1  0
  6  4  2  0
  7  2  1  0
  8  3  2  0
  9  5  2  0
 10  5  1  0
 11  7  2  0
 12  6  1  0
 13 10  2  0
 14 10  1  0
 15 12  1  0
 16 13  1  0
 17 14  2  0
 18 17  1  0
  6  7  1  0
 16 18  2  0
M  END
>  <ID>  (1914) 


>  <MOLENAME>  (1914) 
2-BENZOYL-5-METHOXYBENZOQUINONE

>  <therap>  (1914) 
nan

>  <ref>  (1914) 
nan

>  <cas#>  (1914) 
nan

>  <source>  (1914) 
synthetic dalbergione analog

>  <status>  (1914) 
undetermined activity

>  <tradename>  (1914) 
nan

>  <SMILES>  (1914) 
COC1=CC(=O)C(C(=O)c2ccccc2)=CC1=O

>  <standardized_failed>  (1914) 
False

$$$$

     RDKit          2D

 14 13  0  0  0  0  0  0  0  0999 V2000
    1.9292   -2.4042    0.0000 C   0  0  0  0  0  0  0  0  0  0  0  0
    2.6417   -2.8125    0.0000 N   0  0  0  0  0  0  0  0  0  0  0  0
    3.9792   -2.9417    0.0000 C   0  0  0  0  0  0  0  0  0  0  0  0
    3.3417   -2.4042    0.0000 C   0  0  0  0  0  0  0  0  0  0  0  0
    1.2125   -2.8167    0.0000 C   0  0  0  0  0  0  0  0  0  0  0  0
    1.9292   -1.5875    0.0000 O   0  0  0  0  0  0  0  0  0  0  0  0
    4.6917   -2.5250    0.0000 O   0  0  0  0  0  0  0  0  0  0  0  0
    0.5000   -2.4042    0.0000 C   0  0  0  0  0  0  0  0  0  0  0  0
    1.2125   -3.6417    0.0000 N   0  0  0  0  0  0  0  0  0  0  0  0
    3.9167   -3.7667    0.0000 O   0  0  0  0  0  0  0  0  0  0  0  0
   -0.2125   -2.8167    0.0000 C   0  0  0  0  0  0  0  0  0  0  0  0
    3.4000   -1.5792    0.0000 C   0  0  0  0  0  0  0  0  0  0  0  0
   -0.9583   -2.4792    0.0000 C   0  0  0  0  0  0  0  0  0  0  0  0
   -0.3000   -3.6375    0.0000 C   0  0  0  0  0  0  0  0  0  0  0  0
  2  1  1  0
  3  4  1  0
  4  2  1  0
  5  1  1  0
  6  1  2  0
  7  3  2  0
  5  8  1  0
  5  9  1  1
 10  3  1  0
 11  8  1  0
  4 12  1  1
 13 11  1  0
 14 11  1  0
M  END
>  <ID>  (1915) 


>  <MOLENAME>  (1915) 
L-LEUCYL-L-ALANINE

>  <therap>  (1915) 
ubiquitin blocker, neurite growth inhibitor

>  <ref>  (1915) 
Biochim Biophys Res Commun 189:280 (1992); Experientia 52:865 (1996)

>  <cas#>  (1915) 
7298-84-2

>  <source>  (1915) 
synthetic

>  <status>  (1915) 
experimental

>  <tradename>  (1915) 
nan

>  <SMILES>  (1915) 
CC(C)C[C@H](N)C(=O)N[C@@H](C)C(=O)O

>  <standardized_failed>  (1915) 
False

$$$$

     RDKit          2D

 11 10  0  0  0  0  0  0  0  0999 V2000
    6.6042   -3.7250    0.0000 C   0  0  0  0  0  0  0  0  0  0  0  0
    7.4292   -3.3042    0.0000 C   0  0  0  0  0  0  0  0  0  0  0  0
    5.8125   -3.3750    0.0000 C   0  0  0  0  0  0  0  0  0  0  0  0
    5.0625   -3.8542    0.0000 S   0  0  0  0  0  0  0  0  0  0  0  0
    7.4292   -2.5292    0.0000 O   0  0  0  0  0  0  0  0  0  0  0  0
    5.0625   -4.7417    0.0000 O   0  0  0  0  0  0  0  0  0  0  0  0
    6.6167   -4.5875    0.0000 N   0  0  0  0  0  0  0  0  0  0  0  0
    4.2167   -2.7042    0.0000 C   0  0  0  0  0  0  0  0  0  0  0  0
    3.4625   -2.3667    0.0000 C   0  0  0  0  0  0  0  0  0  0  0  0
    8.1792   -3.7417    0.0000 O   0  0  0  0  0  0  0  0  0  0  0  0
    4.3042   -3.5250    0.0000 C   0  0  0  0  0  0  0  0  0  0  0  0
  2  1  1  0
  3  1  1  0
  4  3  1  0
  5  2  2  0
  6  4  2  0
  1  7  1  1
  8 11  1  0
  9  8  2  0
 10  2  1  0
 11  4  1  0
M  END
>  <ID>  (1916) 


>  <MOLENAME>  (1916) 
L(+/-)-ALLIIN

>  <therap>  (1916) 
antibacterial, antioxidant

>  <ref>  (1916) 
Helv Chim Acta 34:481 (1951); Phytochemistry 15:521 (1976)

>  <cas#>  (1916) 
556-27-4(-)

>  <source>  (1916) 
Allium species 

>  <status>  (1916) 
experimental

>  <tradename>  (1916) 
nan

>  <SMILES>  (1916) 
C=CC[S+]([O-])C[C@H](N)C(=O)O

>  <standardized_failed>  (1916) 
False

$$$$

     RDKit          2D

 27 30  0  0  0  0  0  0  0  0999 V2000
    6.4542   -3.5542    0.0000 C   0  0  0  0  0  0  0  0  0  0  0  0
    4.3125   -4.8000    0.0000 C   0  0  0  0  0  0  0  0  0  0  0  0
    5.7417   -4.8000    0.0000 C   0  0  0  0  0  0  0  0  0  0  0  0
    6.4542   -4.3792    0.0000 C   0  0  0  0  0  0  0  0  0  0  0  0
    5.0250   -4.3792    0.0000 C   0  0  0  0  0  0  0  0  0  0  0  0
    4.3125   -5.6250    0.0000 C   0  0  0  0  0  0  0  0  0  0  0  0
    5.0250   -3.5542    0.0000 C   0  0  0  0  0  0  0  0  0  0  0  0
    5.7375   -3.1417    0.0000 C   0  0  0  0  0  0  0  0  0  0  0  0
    7.2417   -3.3000    0.0000 C   0  0  0  0  0  0  0  0  0  0  0  0
    3.6000   -6.0375    0.0000 C   0  0  0  0  0  0  0  0  0  0  0  0
    7.2417   -4.6375    0.0000 C   0  0  0  0  0  0  0  0  0  0  0  0
    5.7417   -5.6250    0.0000 C   0  0  0  0  0  0  0  0  0  0  0  0
    4.3042   -3.1417    0.0000 O   0  0  0  0  0  0  0  0  0  0  0  0
    3.6000   -4.3792    0.0000 C   0  0  0  0  0  0  0  0  0  0  0  0
    7.7250   -3.9667    0.0000 C   0  0  0  0  0  0  0  0  0  0  0  0
    4.3042   -2.3167    0.0000 C   0  0  0  0  0  0  0  0  0  0  0  0
    7.4917   -2.5125    0.0000 C   0  0  0  0  0  0  0  0  0  0  0  0
    5.0250   -6.0375    0.0000 C   0  0  0  0  0  0  0  0  0  0  0  0
    2.8792   -5.6250    0.0000 C   0  0  0  0  0  0  0  0  0  0  0  0
    5.0167   -1.9042    0.0000 O   0  0  0  0  0  0  0  0  0  0  0  0
    8.3000   -2.3375    0.0000 O   0  0  0  0  0  0  0  0  0  0  0  0
    2.1625   -6.0417    0.0000 O   0  0  0  0  0  0  0  0  0  0  0  0
    2.8792   -4.8000    0.0000 C   0  0  0  0  0  0  0  0  0  0  0  0
    6.4542   -2.7292    0.0000 C   0  0  0  0  0  0  0  0  0  0  0  0
    4.3125   -3.9667    0.0000 C   0  0  0  0  0  0  0  0  0  0  0  0
    3.5917   -1.9042    0.0000 C   0  0  0  0  0  0  0  0  0  0  0  0
    6.9417   -1.9000    0.0000 C   0  0  0  0  0  0  0  0  0  0  0  0
  2  5  1  0
  3  4  1  0
  4  1  1  0
  5  7  1  0
  6  2  1  0
  7  8  1  0
  8  1  1  0
  9  1  1  0
 10  6  2  0
 11  4  1  0
 12  3  1  0
  7 13  1  6
 14  2  1  0
 15  9  1  0
 16 13  1  0
  9 17  1  1
 18 12  1  0
 19 23  1  0
 20 16  2  0
 21 17  2  0
 22 19  2  0
 23 14  1  0
  1 24  1  1
  2 25  1  1
 26 16  1  0
 27 17  1  0
 15 11  1  0
  5  3  1  0
 18  6  1  0
 19 10  1  0
M  END
>  <ID>  (1917) 


>  <MOLENAME>  (1917) 
11a-ACETOXYPROGESTERONE

>  <therap>  (1917) 
metabolite of progesterone

>  <ref>  (1917) 
Endocrinology 53:221 (1953); Biochem Biophys Res Commun 319:677 (2004)

>  <cas#>  (1917) 
2268-98-6

>  <source>  (1917) 
semisynthetic

>  <status>  (1917) 
undetermined activity

>  <tradename>  (1917) 
nan

>  <SMILES>  (1917) 
CC(=O)O[C@@H]1C[C@@]2(C)C(CC[C@@H]2C(C)=O)C2CCC3=CC(=O)CC[C@]3(C)C21

>  <standardized_failed>  (1917) 
False

$$$$

     RDKit          2D

 23 24  0  0  0  0  0  0  0  0999 V2000
    1.5875   -1.2042    0.0000 N   0  0  0  0  0  0  0  0  0  0  0  0
    2.3042   -0.7917    0.0000 C   0  0  0  0  0  0  0  0  0  0  0  0
    1.5875   -2.0292    0.0000 C   0  0  0  0  0  0  0  0  0  0  0  0
    4.4417   -4.5042    0.0000 C   0  0  0  0  0  0  0  0  0  0  0  0
    3.7292   -4.9167    0.0000 C   0  0  0  0  0  0  0  0  0  0  0  0
    4.4417   -3.6792    0.0000 C   0  0  0  0  0  0  0  0  0  0  0  0
    2.3042   -2.4417    0.0000 C   0  0  0  0  0  0  0  0  0  0  0  0
    2.3042   -3.2667    0.0000 C   0  0  0  0  0  0  0  0  0  0  0  0
    3.0167   -3.6792    0.0000 C   0  0  0  0  0  0  0  0  0  0  0  0
    3.0167   -4.5042    0.0000 C   0  0  0  0  0  0  0  0  0  0  0  0
    3.7292   -3.2667    0.0000 C   0  0  0  0  0  0  0  0  0  0  0  0
    2.3042    0.0333    0.0000 C   0  0  0  0  0  0  0  0  0  0  0  0
    3.0167   -1.2042    0.0000 O   0  0  0  0  0  0  0  0  0  0  0  0
    0.8750   -2.4417    0.0000 O   0  0  0  0  0  0  0  0  0  0  0  0
    1.5875    0.4458    0.0000 C   0  0  0  0  0  0  0  0  0  0  0  0
    5.1542   -4.9167    0.0000 O   0  0  0  0  0  0  0  0  0  0  0  0
    0.8750   -0.7917    0.0000 C   0  0  0  0  0  0  0  0  0  0  0  0
    5.1542   -3.2625    0.0000 O   0  0  0  0  0  0  0  0  0  0  0  0
    3.7292   -5.7417    0.0000 O   0  0  0  0  0  0  0  0  0  0  0  0
    0.8750    0.0333    0.0000 C   0  0  0  0  0  0  0  0  0  0  0  0
    5.8750   -4.5042    0.0000 C   0  0  0  0  0  0  0  0  0  0  0  0
    5.8667   -3.6750    0.0000 C   0  0  0  0  0  0  0  0  0  0  0  0
    3.0125   -6.1542    0.0000 C   0  0  0  0  0  0  0  0  0  0  0  0
  2  1  1  0
  3  1  1  0
  4  6  2  0
  5 10  2  0
  6 11  1  0
  7  3  1  0
  8  7  2  0
  9  8  1  0
 10  9  1  0
 11  9  2  0
 12  2  1  0
 13  2  2  0
 14  3  2  0
 15 20  1  0
 16  4  1  0
 17  1  1  0
 18  6  1  0
 19  5  1  0
 20 17  1  0
 21 16  1  0
 22 18  1  0
 23 19  1  0
 15 12  2  0
  4  5  1  0
M  END
>  <ID>  (1918) 


>  <MOLENAME>  (1918) 
PIPLARTINE

>  <therap>  (1918) 
anti-asthma, antibronchitis

>  <ref>  (1918) 
Tetrahedron 23:1769 (1967); Phytochemistry 13:2327 (1974)

>  <cas#>  (1918) 
20069-09-4 

>  <source>  (1918) 
Piper spp; piperlogumine

>  <status>  (1918) 
experimental

>  <tradename>  (1918) 
nan

>  <SMILES>  (1918) 
COc1c(OC)c(OC)cc(/C=C/C(=O)N2CCC=CC2=O)c1

>  <standardized_failed>  (1918) 
False

$$$$

     RDKit          2D

 35 39  0  0  0  0  0  0  0  0999 V2000
    4.6667   -3.5875    0.0000 C   0  0  0  0  0  0  0  0  0  0  0  0
    2.5167   -4.8292    0.0000 C   0  0  0  0  0  0  0  0  0  0  0  0
    4.6625   -4.4167    0.0000 C   0  0  0  0  0  0  0  0  0  0  0  0
    3.9500   -4.8292    0.0000 C   0  0  0  0  0  0  0  0  0  0  0  0
    5.3792   -3.1667    0.0000 C   0  0  0  0  0  0  0  0  0  0  0  0
    6.0917   -3.5875    0.0000 C   0  0  0  0  0  0  0  0  0  0  0  0
    1.8042   -6.0667    0.0000 C   0  0  0  0  0  0  0  0  0  0  0  0
    3.2375   -4.4167    0.0000 C   0  0  0  0  0  0  0  0  0  0  0  0
    2.5167   -5.6542    0.0000 C   0  0  0  0  0  0  0  0  0  0  0  0
    3.9500   -3.1750    0.0000 C   0  0  0  0  0  0  0  0  0  0  0  0
    1.8042   -4.4167    0.0000 C   0  0  0  0  0  0  0  0  0  0  0  0
    1.0917   -5.6542    0.0000 C   0  0  0  0  0  0  0  0  0  0  0  0
    6.8042   -4.0000    0.0000 C   0  0  0  0  0  0  0  0  0  0  0  0
    5.3792   -2.3417    0.0000 C   0  0  0  0  0  0  0  0  0  0  0  0
    1.0917   -4.8292    0.0000 C   0  0  0  0  0  0  0  0  0  0  0  0
    5.3792   -4.8292    0.0000 C   0  0  0  0  0  0  0  0  0  0  0  0
    3.9500   -5.6542    0.0000 C   0  0  0  0  0  0  0  0  0  0  0  0
    3.2375   -3.5875    0.0000 C   0  0  0  0  0  0  0  0  0  0  0  0
    6.0917   -4.4167    0.0000 C   0  0  0  0  0  0  0  0  0  0  0  0
    3.2375   -6.0667    0.0000 C   0  0  0  0  0  0  0  0  0  0  0  0
    6.8042   -3.1792    0.0000 C   0  0  0  0  0  0  0  0  0  0  0  0
    7.5167   -3.5792    0.0000 O   0  0  0  0  0  0  0  0  0  0  0  0
    6.1042   -1.9375    0.0000 C   0  0  0  0  0  0  0  0  0  0  0  0
    6.8167   -2.3542    0.0000 C   0  0  0  0  0  0  0  0  0  0  0  0
    2.2125   -6.7792    0.0000 C   0  0  0  0  0  0  0  0  0  0  0  0
    2.5167   -4.0042    0.0000 C   0  0  0  0  0  0  0  0  0  0  0  0
    0.3792   -6.0625    0.0000 O   0  0  0  0  0  0  0  0  0  0  0  0
    4.6542   -5.2375    0.0000 C   0  0  0  0  0  0  0  0  0  0  0  0
    1.3875   -6.7792    0.0000 C   0  0  0  0  0  0  0  0  0  0  0  0
    6.8042   -4.8250    0.0000 O   0  0  0  0  0  0  0  0  0  0  0  0
    3.9417   -4.0042    0.0000 C   0  0  0  0  0  0  0  0  0  0  0  0
    0.3792   -4.4167    0.0000 O   0  0  0  0  0  0  0  0  0  0  0  0
    1.7917   -7.4875    0.0000 O   0  0  0  0  0  0  0  0  0  0  0  0
    4.6667   -1.9292    0.0000 C   0  0  0  0  0  0  0  0  0  0  0  0
    6.1042   -1.1125    0.0000 C   0  0  0  0  0  0  0  0  0  0  0  0
  2  8  1  0
  3  1  1  0
  4  3  1  0
  5  1  1  6
  6  5  1  0
  7  9  1  0
  8 18  1  0
  9  2  1  0
 10  1  2  0
 11  2  1  0
 12 15  1  0
  6 13  1  1
  5 14  1  0
 15 11  1  0
 16  3  1  0
 17  4  1  0
 18 10  1  0
 19  6  1  0
 20 17  1  0
 21  6  1  0
 22 13  2  0
 23 14  1  0
 24 23  1  0
  7 25  1  0
  2 26  1  1
 12 27  1  1
  3 28  1  6
  7 29  1  1
 30 13  1  0
  4 31  1  1
 15 32  1  6
 33 25  1  0
 14 34  1  1
 23 35  1  6
  8  4  1  0
 19 16  1  0
 24 21  1  0
 20  9  1  0
 12  7  1  0
M  END
>  <ID>  (1919) 


>  <MOLENAME>  (1919) 
ASIATIC ACID

>  <therap>  (1919) 
wound healing, experimental carcinogen

>  <ref>  (1919) 
Bull Soc Chim Fr 1959:880; 1961:1586; J Chem Soc 1961:646; Phytochemistry 8:917 (1969)

>  <cas#>  (1919) 
464-92-6

>  <source>  (1919) 
Dipterocarpus pilosus, Dryobalanops aromatica 

>  <status>  (1919) 
experimental

>  <tradename>  (1919) 
nan

>  <SMILES>  (1919) 
C[C@@H]1[C@H]2C3=CCC4[C@@]5(C)C[C@@H](O)[C@H](O)[C@@](C)(CO)C5CC[C@@]4(C)[C@]3(C)CC[C@@]2(C(=O)O)CC[C@H]1C

>  <standardized_failed>  (1919) 
False

$$$$

     RDKit          2D

 29 31  0  0  0  0  0  0  0  0999 V2000
    0.7375   -3.7625    0.0000 C   0  0  0  0  0  0  0  0  0  0  0  0
    0.7375   -2.9375    0.0000 C   0  0  0  0  0  0  0  0  0  0  0  0
    1.4417   -2.5167    0.0000 O   0  0  0  0  0  0  0  0  0  0  0  0
    0.0167   -4.1792    0.0000 C   0  0  0  0  0  0  0  0  0  0  0  0
    1.4542   -4.1750    0.0000 C   0  0  0  0  0  0  0  0  0  0  0  0
    0.0167   -2.5250    0.0000 C   0  0  0  0  0  0  0  0  0  0  0  0
    2.1625   -2.9292    0.0000 C   0  0  0  0  0  0  0  0  0  0  0  0
   -0.6958   -3.7667    0.0000 C   0  0  0  0  0  0  0  0  0  0  0  0
   -0.6958   -2.9375    0.0000 C   0  0  0  0  0  0  0  0  0  0  0  0
    2.1667   -3.7542    0.0000 C   0  0  0  0  0  0  0  0  0  0  0  0
    2.8667   -2.5125    0.0000 C   0  0  0  0  0  0  0  0  0  0  0  0
    3.5875   -2.9250    0.0000 C   0  0  0  0  0  0  0  0  0  0  0  0
    4.3000   -2.5042    0.0000 C   0  0  0  0  0  0  0  0  0  0  0  0
    1.4542   -5.0000    0.0000 O   0  0  0  0  0  0  0  0  0  0  0  0
    4.2917   -1.6792    0.0000 C   0  0  0  0  0  0  0  0  0  0  0  0
    2.8667   -1.6917    0.0000 C   0  0  0  0  0  0  0  0  0  0  0  0
    3.5750   -1.2750    0.0000 C   0  0  0  0  0  0  0  0  0  0  0  0
    0.0250   -5.0042    0.0000 O   0  0  0  0  0  0  0  0  0  0  0  0
    0.0167   -1.7000    0.0000 O   0  0  0  0  0  0  0  0  0  0  0  0
   -1.4083   -4.1792    0.0000 O   0  0  0  0  0  0  0  0  0  0  0  0
   -1.4083   -2.5292    0.0000 O   0  0  0  0  0  0  0  0  0  0  0  0
    5.0167   -2.9167    0.0000 O   0  0  0  0  0  0  0  0  0  0  0  0
    5.0042   -1.2625    0.0000 O   0  0  0  0  0  0  0  0  0  0  0  0
    0.7417   -5.4167    0.0000 C   0  0  0  0  0  0  0  0  0  0  0  0
   -2.1208   -2.9417    0.0000 C   0  0  0  0  0  0  0  0  0  0  0  0
   -2.1208   -3.7667    0.0000 C   0  0  0  0  0  0  0  0  0  0  0  0
    0.7292   -1.2875    0.0000 C   0  0  0  0  0  0  0  0  0  0  0  0
    5.0167   -3.7417    0.0000 C   0  0  0  0  0  0  0  0  0  0  0  0
    5.0000   -0.4375    0.0000 C   0  0  0  0  0  0  0  0  0  0  0  0
  2  1  2  0
  3  2  1  0
  4  1  1  0
  5  1  1  0
  6  2  1  0
  7 10  2  0
  8  4  2  0
  9  8  1  0
 10  5  1  0
 11  7  1  0
 12 11  2  0
 13 12  1  0
 14  5  2  0
 15 17  1  0
 16 11  1  0
 17 16  2  0
 18  4  1  0
 19  6  1  0
 20  8  1  0
 21  9  1  0
 22 13  1  0
 23 15  1  0
 24 18  1  0
 25 21  1  0
 26 20  1  0
 27 19  1  0
 28 22  1  0
 29 23  1  0
  7  3  1  0
  9  6  2  0
 15 13  2  0
M  END
>  <ID>  (1920) 


>  <MOLENAME>  (1920) 
NOBILETIN

>  <therap>  (1920) 
matrix metaloproteinase inhibitor; antineoplastic

>  <ref>  (1920) 
 J Chem Soc 1938:1004; Phytochemistry 14:309 (1975); J Cancer Res 92:1322 (2001); Biochem Pharmacol 65:2065 (2003);  Mol Cancer Ther 3:839 (2004)

>  <cas#>  (1920) 
478-01-3

>  <source>  (1920) 
Citrus spp

>  <status>  (1920) 
experimental

>  <tradename>  (1920) 
nan

>  <SMILES>  (1920) 
COc1c(OC)cc(-c2cc(=O)c3c(o2)c(OC)c(OC)c(OC)c3OC)cc1

>  <standardized_failed>  (1920) 
False

$$$$

     RDKit          2D

 34 37  0  0  0  0  0  0  0  0999 V2000
    1.6167   -3.7042    0.0000 C   0  0  0  0  0  0  0  0  0  0  0  0
    1.6167   -2.8500    0.0000 C   0  0  0  0  0  0  0  0  0  0  0  0
    3.1042   -2.8500    0.0000 C   0  0  0  0  0  0  0  0  0  0  0  0
    3.8417   -1.5667    0.0000 C   0  0  0  0  0  0  0  0  0  0  0  0
    2.3667   -2.4167    0.0000 C   0  0  0  0  0  0  0  0  0  0  0  0
    3.8417   -2.4167    0.0000 C   0  0  0  0  0  0  0  0  0  0  0  0
    0.8792   -4.1292    0.0000 C   0  0  0  0  0  0  0  0  0  0  0  0
    2.3667   -4.1292    0.0000 C   0  0  0  0  0  0  0  0  0  0  0  0
    3.1042   -3.7042    0.0000 C   0  0  0  0  0  0  0  0  0  0  0  0
    4.6542   -1.3000    0.0000 C   0  0  0  0  0  0  0  0  0  0  0  0
    0.1500   -3.7042    0.0000 C   0  0  0  0  0  0  0  0  0  0  0  0
    3.1042   -1.1417    0.0000 C   0  0  0  0  0  0  0  0  0  0  0  0
    0.8792   -2.4167    0.0000 C   0  0  0  0  0  0  0  0  0  0  0  0
    2.3667   -1.5667    0.0000 C   0  0  0  0  0  0  0  0  0  0  0  0
    4.6542   -2.6875    0.0000 C   0  0  0  0  0  0  0  0  0  0  0  0
    5.7417   -0.3167    0.0000 C   0  0  0  0  0  0  0  0  0  0  0  0
    6.3167   -0.9417    0.0000 C   0  0  0  0  0  0  0  0  0  0  0  0
    5.1542   -1.9917    0.0000 C   0  0  0  0  0  0  0  0  0  0  0  0
   -0.5875   -4.1292    0.0000 O   0  0  0  0  0  0  0  0  0  0  0  0
   -1.3208   -3.7042    0.0000 C   0  0  0  0  0  0  0  0  0  0  0  0
    0.1500   -2.8500    0.0000 C   0  0  0  0  0  0  0  0  0  0  0  0
    4.9167   -0.4917    0.0000 C   0  0  0  0  0  0  0  0  0  0  0  0
   -1.3208   -2.8542    0.0000 O   0  0  0  0  0  0  0  0  0  0  0  0
    7.1417   -0.7792    0.0000 C   0  0  0  0  0  0  0  0  0  0  0  0
    1.6167   -2.2167    0.0000 C   0  0  0  0  0  0  0  0  0  0  0  0
    3.8417   -0.8042    0.0000 C   0  0  0  0  0  0  0  0  0  0  0  0
    1.4542   -4.4417    0.0000 C   0  0  0  0  0  0  0  0  0  0  0  0
    0.5042   -4.3667    0.0000 C   0  0  0  0  0  0  0  0  0  0  0  0
    7.7125   -1.4042    0.0000 C   0  0  0  0  0  0  0  0  0  0  0  0
   -2.0583   -4.1292    0.0000 C   0  0  0  0  0  0  0  0  0  0  0  0
    4.3500    0.1333    0.0000 C   0  0  0  0  0  0  0  0  0  0  0  0
    7.4042    0.0333    0.0000 C   0  0  0  0  0  0  0  0  0  0  0  0
    8.5375   -1.2292    0.0000 C   0  0  0  0  0  0  0  0  0  0  0  0
    7.4417   -2.2167    0.0000 C   0  0  0  0  0  0  0  0  0  0  0  0
  2  1  1  0
  3  9  2  0
  4  6  1  0
  5  2  1  0
  6  3  1  0
  7  1  1  0
  8  1  2  0
  9  8  1  0
 10  4  1  0
 11  7  1  0
 12 14  1  0
 13  2  1  0
 14  5  1  0
 15  6  1  0
 16 22  1  0
 17 16  2  0
 18 15  1  0
 19 11  1  0
 20 19  1  0
 21 11  1  0
 22 10  1  0
 23 20  2  0
 24 17  1  0
 25  2  1  0
 26  4  1  0
 27  7  1  0
 28  7  1  0
 29 24  1  0
 30 20  1  0
 31 22  1  0
 32 24  1  0
 33 29  1  0
 34 29  1  0
  3  5  1  0
 13 21  1  0
  4 12  1  0
 18 10  1  0
M  END
>  <ID>  (1921) 


>  <MOLENAME>  (1921) 
ERGOSTEROL ACETATE

>  <therap>  (1921) 
nan

>  <ref>  (1921) 
nan

>  <cas#>  (1921) 
2418-45-3

>  <source>  (1921) 
derivative; mp 179-181 C

>  <status>  (1921) 
undetermined activity

>  <tradename>  (1921) 
nan

>  <SMILES>  (1921) 
CC(=O)OC1CCC2(C)C(=CC=C3C2CCC2(C)C3CCC2C(C)/C=C/C(C)C(C)C)C1(C)C

>  <standardized_failed>  (1921) 
False

$$$$

     RDKit          2D

 22 23  0  0  0  0  0  0  0  0999 V2000
    4.4167   -1.6125    0.0000 O   0  0  0  0  0  0  0  0  0  0  0  0
    3.7042   -2.0292    0.0000 C   0  0  0  0  0  0  0  0  0  0  0  0
    5.1375   -2.0292    0.0000 C   0  0  0  0  0  0  0  0  0  0  0  0
    4.4167   -3.2667    0.0000 C   0  0  0  0  0  0  0  0  0  0  0  0
    5.1375   -2.8542    0.0000 C   0  0  0  0  0  0  0  0  0  0  0  0
    3.7042   -2.8542    0.0000 C   0  0  0  0  0  0  0  0  0  0  0  0
    2.9917   -1.6167    0.0000 C   0  0  0  0  0  0  0  0  0  0  0  0
    5.8542   -1.6167    0.0000 O   0  0  0  0  0  0  0  0  0  0  0  0
   -0.5708   -2.0292    0.0000 C   0  0  0  0  0  0  0  0  0  0  0  0
   -3.4208   -2.0292    0.0000 C   0  0  0  0  0  0  0  0  0  0  0  0
    0.1417   -1.6167    0.0000 C   0  0  0  0  0  0  0  0  0  0  0  0
   -2.7083   -1.6167    0.0000 C   0  0  0  0  0  0  0  0  0  0  0  0
    2.9917   -3.2667    0.0000 C   0  0  0  0  0  0  0  0  0  0  0  0
    2.2792   -2.0292    0.0000 C   0  0  0  0  0  0  0  0  0  0  0  0
    2.2792   -2.8542    0.0000 C   0  0  0  0  0  0  0  0  0  0  0  0
    0.8542   -2.0292    0.0000 C   0  0  0  0  0  0  0  0  0  0  0  0
   -1.9958   -2.0292    0.0000 C   0  0  0  0  0  0  0  0  0  0  0  0
    1.5667   -1.6167    0.0000 O   0  0  0  0  0  0  0  0  0  0  0  0
   -1.2833   -1.6167    0.0000 C   0  0  0  0  0  0  0  0  0  0  0  0
   -3.4208   -2.8542    0.0000 C   0  0  0  0  0  0  0  0  0  0  0  0
   -4.1333   -1.6167    0.0000 C   0  0  0  0  0  0  0  0  0  0  0  0
   -0.5708   -2.8542    0.0000 C   0  0  0  0  0  0  0  0  0  0  0  0
  2  1  1  0
  3  1  1  0
  4  5  2  0
  5  3  1  0
  6  2  2  0
  7  2  1  0
  8  3  2  0
  9 11  2  0
 10 12  2  0
 11 16  1  0
 12 17  1  0
 13  6  1  0
 14  7  2  0
 15 14  1  0
 16 18  1  0
 17 19  1  0
 18 14  1  0
 19  9  1  0
 20 10  1  0
 21 10  1  0
 22  9  1  0
  4  6  1  0
 13 15  2  0
M  END
>  <ID>  (1922) 


>  <MOLENAME>  (1922) 
AURAPTENE

>  <therap>  (1922) 
antineoplastic, apoptosis inducer

>  <ref>  (1922) 
Chem Pharm Bull 1:119 (1959); Cancer Res 12:2550 (1998); Mutat Res 480:201 (2001)

>  <cas#>  (1922) 
495-02-3

>  <source>  (1922) 
Citrus aurantium, Feronia elephantum, Aegle marmelos, Libanotis intermedia

>  <status>  (1922) 
experimental

>  <tradename>  (1922) 
nan

>  <SMILES>  (1922) 
CC(C)=CCC/C(C)=C/COc1cc2c(cc1)ccc(=O)o2

>  <standardized_failed>  (1922) 
False

$$$$

     RDKit          2D

 33 39  0  0  0  0  0  0  0  0999 V2000
    3.7000   -0.6375    0.0000 C   0  0  0  0  0  0  0  0  0  0  0  0
    4.3875   -1.0375    0.0000 C   0  0  0  0  0  0  0  0  0  0  0  0
    2.9792   -1.0375    0.0000 C   0  0  0  0  0  0  0  0  0  0  0  0
    0.1042   -1.0375    0.0000 C   0  0  0  0  0  0  0  0  0  0  0  0
    3.7000    0.1875    0.0000 C   0  0  0  0  0  0  0  0  0  0  0  0
    0.8250   -0.6375    0.0000 C   0  0  0  0  0  0  0  0  0  0  0  0
    1.5167   -1.0375    0.0000 C   0  0  0  0  0  0  0  0  0  0  0  0
    3.7000   -1.5167    0.0000 O   0  0  0  0  0  0  0  0  0  0  0  0
    0.1042   -0.2125    0.0000 O   0  0  0  0  0  0  0  0  0  0  0  0
    2.2375   -0.6375    0.0000 C   0  0  0  0  0  0  0  0  0  0  0  0
    1.5167   -1.8625    0.0000 C   0  0  0  0  0  0  0  0  0  0  0  0
    5.1125   -0.6375    0.0000 C   0  0  0  0  0  0  0  0  0  0  0  0
    0.1042   -1.8625    0.0000 C   0  0  0  0  0  0  0  0  0  0  0  0
    4.3875    0.5875    0.0000 C   0  0  0  0  0  0  0  0  0  0  0  0
    0.8250   -2.2875    0.0000 C   0  0  0  0  0  0  0  0  0  0  0  0
    5.1125    0.1875    0.0000 O   0  0  0  0  0  0  0  0  0  0  0  0
    2.9792   -1.8542    0.0000 C   0  0  0  0  0  0  0  0  0  0  0  0
    4.3792    1.4125    0.0000 C   0  0  0  0  0  0  0  0  0  0  0  0
    2.2792   -2.2625    0.0000 C   0  0  0  0  0  0  0  0  0  0  0  0
    2.9792    0.5875    0.0000 C   0  0  0  0  0  0  0  0  0  0  0  0
    2.2375    0.1875    0.0000 C   0  0  0  0  0  0  0  0  0  0  0  0
    5.8250   -1.0625    0.0000 O   0  0  0  0  0  0  0  0  0  0  0  0
    4.9292    1.9958    0.0000 C   0  0  0  0  0  0  0  0  0  0  0  0
   -0.6125   -2.2875    0.0000 O   0  0  0  0  0  0  0  0  0  0  0  0
    3.6417    1.7750    0.0000 C   0  0  0  0  0  0  0  0  0  0  0  0
    4.5667    2.7333    0.0000 O   0  0  0  0  0  0  0  0  0  0  0  0
    3.7417    2.5833    0.0000 C   0  0  0  0  0  0  0  0  0  0  0  0
    2.9792   -0.0542    0.0000 C   0  0  0  0  0  0  0  0  0  0  0  0
    3.7000    1.0125    0.0000 C   0  0  0  0  0  0  0  0  0  0  0  0
    1.5167   -0.1042    0.0000 C   0  0  0  0  0  0  0  0  0  0  0  0
    3.7000   -2.2042    0.0000 O   0  0  0  0  0  0  0  0  0  0  0  0
    1.5167   -2.7417    0.0000 C   0  0  0  0  0  0  0  0  0  0  0  0
    0.1042   -2.7417    0.0000 C   0  0  0  0  0  0  0  0  0  0  0  0
  2  1  1  0
  3  1  1  0
  4  6  1  0
  5  1  1  0
  6  7  1  0
  7 10  1  0
  8  1  1  0
  6  9  1  6
 10  3  1  0
 11 19  1  0
 12  2  1  0
 13 15  1  0
 14  5  1  0
 15 11  1  0
 14 16  1  6
 17  3  1  0
 14 18  1  0
 19 17  1  0
 20  5  1  0
 21 20  1  0
 22 12  2  0
 23 18  2  0
 24 13  2  0
 25 18  1  0
 26 23  1  0
 27 25  2  0
  3 28  1  1
  5 29  1  6
  7 30  1  1
 17 31  1  6
 32 15  1  0
 33 15  1  0
  2  8  1  0
 10 21  1  0
 12 16  1  0
  7 11  1  0
 27 26  1  0
  4  9  1  6
 13  4  1  0
M  END
>  <ID>  (1923) 


>  <MOLENAME>  (1923) 
1.2alpha-EPOXYDEACETOXYDIHYDROGEDUNIN

>  <therap>  (1923) 
nan

>  <ref>  (1923) 
nan

>  <cas#>  (1923) 
nan

>  <source>  (1923) 
Meliaceae spp

>  <status>  (1923) 
undetermined activity

>  <tradename>  (1923) 
nan

>  <SMILES>  (1923) 
CC1(C)C(=O)[C@@H]2O[C@@H]2[C@@]2(C)C1C[C@@H](O)[C@]1(C)C2CC[C@@]2(C)[C@H](c3cocc3)OC(=O)C3OC321

>  <standardized_failed>  (1923) 
False

$$$$

     RDKit          2D

 28 32  0  0  0  0  0  0  0  0999 V2000
    7.7750   -2.8625    0.0000 C   0  0  0  0  0  0  0  0  0  0  0  0
    7.7750   -3.6125    0.0000 C   0  0  0  0  0  0  0  0  0  0  0  0
    7.1250   -3.9875    0.0000 C   0  0  0  0  0  0  0  0  0  0  0  0
    6.4750   -3.6125    0.0000 C   0  0  0  0  0  0  0  0  0  0  0  0
    5.8250   -3.9875    0.0000 C   0  0  0  0  0  0  0  0  0  0  0  0
    3.2250   -4.7500    0.0000 C   0  0  0  0  0  0  0  0  0  0  0  0
    5.8250   -4.7375    0.0000 C   0  0  0  0  0  0  0  0  0  0  0  0
    8.4875   -2.6375    0.0000 C   0  0  0  0  0  0  0  0  0  0  0  0
    7.1125   -2.5000    0.0000 C   0  0  0  0  0  0  0  0  0  0  0  0
    6.4750   -2.8625    0.0000 C   0  0  0  0  0  0  0  0  0  0  0  0
    8.4875   -3.8500    0.0000 C   0  0  0  0  0  0  0  0  0  0  0  0
    7.1250   -4.7375    0.0000 C   0  0  0  0  0  0  0  0  0  0  0  0
    3.8750   -5.1250    0.0000 O   0  0  0  0  0  0  0  0  0  0  0  0
    5.1750   -3.6125    0.0000 C   0  0  0  0  0  0  0  0  0  0  0  0
    5.1750   -5.1125    0.0000 C   0  0  0  0  0  0  0  0  0  0  0  0
    6.4750   -5.1125    0.0000 C   0  0  0  0  0  0  0  0  0  0  0  0
    4.5250   -4.7375    0.0000 C   0  0  0  0  0  0  0  0  0  0  0  0
    2.5750   -5.1250    0.0000 O   0  0  0  0  0  0  0  0  0  0  0  0
    8.9250   -3.2375    0.0000 C   0  0  0  0  0  0  0  0  0  0  0  0
    3.2167   -3.9917    0.0000 C   0  0  0  0  0  0  0  0  0  0  0  0
    8.6500   -1.9125    0.0000 O   0  0  0  0  0  0  0  0  0  0  0  0
    4.5250   -3.9875    0.0000 C   0  0  0  0  0  0  0  0  0  0  0  0
    7.7625   -2.0917    0.0000 C   0  0  0  0  0  0  0  0  0  0  0  0
    3.8667   -3.6167    0.0000 C   0  0  0  0  0  0  0  0  0  0  0  0
    2.5667   -3.6250    0.0000 C   0  0  0  0  0  0  0  0  0  0  0  0
    2.5542   -2.8667    0.0000 C   0  0  0  0  0  0  0  0  0  0  0  0
    3.8667   -2.8625    0.0000 C   0  0  0  0  0  0  0  0  0  0  0  0
    3.2125   -2.4875    0.0000 C   0  0  0  0  0  0  0  0  0  0  0  0
  2  1  1  0
  3  2  1  0
  4 10  1  0
  5  4  1  0
  6 13  1  0
  7  5  2  0
  8  1  1  0
  9  1  1  0
 10  9  1  0
 11  2  1  0
 12  3  1  0
 13 17  1  0
 14  5  1  0
 15  7  1  0
 16 12  1  0
 17 22  1  0
 18  6  2  0
 19  8  1  0
 20  6  1  0
 21  8  2  0
 22 14  2  0
  1 23  1  1
 24 20  2  0
 25 20  1  0
 26 25  2  0
 27 24  1  0
 28 26  1  0
 19 11  1  0
  4  3  1  0
 16  7  1  0
 17 15  2  0
 28 27  2  0
M  END
>  <ID>  (1924) 


>  <MOLENAME>  (1924) 
ESTRONE BENZOATE

>  <therap>  (1924) 
nan

>  <ref>  (1924) 
nan

>  <cas#>  (1924) 
nan

>  <source>  (1924) 
semisynthetic

>  <status>  (1924) 
undetermined activity

>  <tradename>  (1924) 
nan

>  <SMILES>  (1924) 
C[C@]12CCC3c4c(cc(OC(=O)c5ccccc5)cc4)CCC3C1CCC2=O

>  <standardized_failed>  (1924) 
False

$$$$

     RDKit          2D

 26 28  0  0  0  0  0  0  0  0999 V2000
    2.3292   -2.6667    0.0000 C   0  0  0  0  0  0  0  0  0  0  0  0
    2.9792   -3.0417    0.0000 C   0  0  0  0  0  0  0  0  0  0  0  0
    3.6375   -2.6667    0.0000 C   0  0  0  0  0  0  0  0  0  0  0  0
    1.6750   -3.0417    0.0000 C   0  0  0  0  0  0  0  0  0  0  0  0
    2.3292   -1.9167    0.0000 C   0  0  0  0  0  0  0  0  0  0  0  0
    4.2875   -3.0417    0.0000 C   0  0  0  0  0  0  0  0  0  0  0  0
    1.0292   -2.6667    0.0000 C   0  0  0  0  0  0  0  0  0  0  0  0
    3.6375   -1.9167    0.0000 C   0  0  0  0  0  0  0  0  0  0  0  0
    2.9792   -1.5375    0.0000 O   0  0  0  0  0  0  0  0  0  0  0  0
    5.5792   -3.7917    0.0000 C   0  0  0  0  0  0  0  0  0  0  0  0
    1.6750   -1.5375    0.0000 C   0  0  0  0  0  0  0  0  0  0  0  0
    1.0292   -1.9167    0.0000 C   0  0  0  0  0  0  0  0  0  0  0  0
    4.9375   -4.1667    0.0000 C   0  0  0  0  0  0  0  0  0  0  0  0
    5.5792   -3.0417    0.0000 C   0  0  0  0  0  0  0  0  0  0  0  0
    4.2875   -3.7917    0.0000 C   0  0  0  0  0  0  0  0  0  0  0  0
    4.9375   -2.6667    0.0000 C   0  0  0  0  0  0  0  0  0  0  0  0
    2.9792   -3.7917    0.0000 O   0  0  0  0  0  0  0  0  0  0  0  0
    1.6750   -3.7917    0.0000 O   0  0  0  0  0  0  0  0  0  0  0  0
    0.3792   -3.0417    0.0000 O   0  0  0  0  0  0  0  0  0  0  0  0
    6.2292   -4.1667    0.0000 O   0  0  0  0  0  0  0  0  0  0  0  0
    0.3750   -1.5417    0.0000 O   0  0  0  0  0  0  0  0  0  0  0  0
    4.9375   -4.9167    0.0000 O   0  0  0  0  0  0  0  0  0  0  0  0
    6.2292   -2.6667    0.0000 O   0  0  0  0  0  0  0  0  0  0  0  0
   -0.2708   -2.6667    0.0000 C   0  0  0  0  0  0  0  0  0  0  0  0
    6.8792   -3.7917    0.0000 C   0  0  0  0  0  0  0  0  0  0  0  0
    6.8792   -3.0417    0.0000 C   0  0  0  0  0  0  0  0  0  0  0  0
  2  1  1  0
  3  2  1  0
  4  1  2  0
  5  1  1  0
  6  3  1  0
  7  4  1  0
  8  9  1  0
  9  5  1  0
 10 14  2  0
 11  5  2  0
 12 11  1  0
 13 15  2  0
 14 16  1  0
 15  6  1  0
 16  6  2  0
 17  2  2  0
 18  4  1  0
 19  7  1  0
 20 10  1  0
 21 12  1  0
 22 13  1  0
 23 14  1  0
 24 19  1  0
 25 20  1  0
 26 23  1  0
 12  7  2  0
  3  8  2  0
 13 10  1  0
M  END
>  <ID>  (1925) 


>  <MOLENAME>  (1925) 
IRIGENIN

>  <therap>  (1925) 
nan

>  <ref>  (1925) 
J Chem Soc 1928:1022; 1970:1219

>  <cas#>  (1925) 
548-76-5

>  <source>  (1925) 
Iris spp

>  <status>  (1925) 
experimental

>  <tradename>  (1925) 
nan

>  <SMILES>  (1925) 
COc1c(OC)c(O)cc(-c2coc3cc(O)c(OC)c(O)c3c2=O)c1

>  <standardized_failed>  (1925) 
False

$$$$

     RDKit          2D

 37 40  0  0  0  0  0  0  0  0999 V2000
    3.2375   -3.3375    0.0000 C   0  0  0  0  0  0  0  0  0  0  0  0
    3.8875   -3.7125    0.0000 C   0  0  0  0  0  0  0  0  0  0  0  0
    4.5417   -3.3375    0.0000 C   0  0  0  0  0  0  0  0  0  0  0  0
    0.6292   -1.8292    0.0000 C   0  0  0  0  0  0  0  0  0  0  0  0
    2.5792   -3.7125    0.0000 C   0  0  0  0  0  0  0  0  0  0  0  0
   -0.0208   -2.2042    0.0000 C   0  0  0  0  0  0  0  0  0  0  0  0
    3.2375   -2.5792    0.0000 C   0  0  0  0  0  0  0  0  0  0  0  0
   -0.6833   -1.8292    0.0000 C   0  0  0  0  0  0  0  0  0  0  0  0
    1.9375   -2.5792    0.0000 C   0  0  0  0  0  0  0  0  0  0  0  0
    1.9375   -3.3375    0.0000 C   0  0  0  0  0  0  0  0  0  0  0  0
    5.1917   -3.7125    0.0000 C   0  0  0  0  0  0  0  0  0  0  0  0
    0.6292   -1.0750    0.0000 O   0  0  0  0  0  0  0  0  0  0  0  0
    4.5417   -2.5792    0.0000 C   0  0  0  0  0  0  0  0  0  0  0  0
   -0.6833   -1.0792    0.0000 C   0  0  0  0  0  0  0  0  0  0  0  0
   -0.0250   -0.7000    0.0000 C   0  0  0  0  0  0  0  0  0  0  0  0
    3.8875   -2.2000    0.0000 O   0  0  0  0  0  0  0  0  0  0  0  0
    2.5792   -2.2000    0.0000 C   0  0  0  0  0  0  0  0  0  0  0  0
    1.2792   -2.2042    0.0000 O   0  0  0  0  0  0  0  0  0  0  0  0
    6.4875   -4.4625    0.0000 C   0  0  0  0  0  0  0  0  0  0  0  0
    6.4875   -3.7125    0.0000 C   0  0  0  0  0  0  0  0  0  0  0  0
    5.8417   -4.8375    0.0000 C   0  0  0  0  0  0  0  0  0  0  0  0
    5.8417   -3.3375    0.0000 C   0  0  0  0  0  0  0  0  0  0  0  0
    5.1917   -4.4625    0.0000 C   0  0  0  0  0  0  0  0  0  0  0  0
    3.8875   -4.4625    0.0000 O   0  0  0  0  0  0  0  0  0  0  0  0
    2.5792   -4.4625    0.0000 O   0  0  0  0  0  0  0  0  0  0  0  0
   -0.0208   -2.9625    0.0000 O   0  0  0  0  0  0  0  0  0  0  0  0
   -1.3333   -2.2042    0.0000 O   0  0  0  0  0  0  0  0  0  0  0  0
   -1.3333   -0.7042    0.0000 O   0  0  0  0  0  0  0  0  0  0  0  0
    1.2875   -3.7125    0.0000 O   0  0  0  0  0  0  0  0  0  0  0  0
    7.1375   -4.8375    0.0000 O   0  0  0  0  0  0  0  0  0  0  0  0
    7.1375   -3.3375    0.0000 O   0  0  0  0  0  0  0  0  0  0  0  0
    5.8417   -5.5875    0.0000 O   0  0  0  0  0  0  0  0  0  0  0  0
   -0.0250    0.0583    0.0000 C   0  0  0  0  0  0  0  0  0  0  0  0
   -0.7375    0.3083    0.0000 O   0  0  0  0  0  0  0  0  0  0  0  0
    0.6375   -3.3375    0.0000 C   0  0  0  0  0  0  0  0  0  0  0  0
    7.1375   -5.5875    0.0000 C   0  0  0  0  0  0  0  0  0  0  0  0
    5.1917   -5.9625    0.0000 C   0  0  0  0  0  0  0  0  0  0  0  0
  2  1  1  0
  3  2  1  0
  4 18  1  1
  5  1  2  0
  6  4  1  0
  7  1  1  0
  8  6  1  0
  9 17  1  0
 10  5  1  0
 11  3  1  0
 12  4  1  0
 13 16  1  0
 14 15  1  0
 15 12  1  0
 16  7  1  0
 17  7  2  0
 18  9  1  0
 19 21  2  0
 20 22  2  0
 21 23  1  0
 22 11  1  0
 23 11  2  0
 24  2  2  0
 25  5  1  0
  6 26  1  6
  8 27  1  1
 14 28  1  6
 29 10  1  0
 30 19  1  0
 31 20  1  0
 32 21  1  0
 15 33  1  1
 34 33  1  0
 35 29  1  0
 36 30  1  0
 37 32  1  0
 10  9  2  0
 13  3  2  0
 20 19  1  0
  8 14  1  0
M  END
>  <ID>  (1926) 


>  <MOLENAME>  (1926) 
IRIDIN

>  <therap>  (1926) 
nan

>  <ref>  (1926) 
J Chem Soc 1928:1022; Phytochemistry 22:2061 (1983); Prog Chem Org Nat Prod 43:1 (1983)

>  <cas#>  (1926) 
491-74-7

>  <source>  (1926) 
Iris spp.

>  <status>  (1926) 
undetermined activity

>  <tradename>  (1926) 
nan

>  <SMILES>  (1926) 
COc1c(OC)c(O)cc(-c2coc3cc(O[C@@H]4O[C@H](CO)[C@@H](O)[C@H](O)[C@H]4O)c(OC)c(O)c3c2=O)c1

>  <standardized_failed>  (1926) 
False

$$$$

     RDKit          2D

 20 21  0  0  0  0  0  0  0  0999 V2000
    5.0167   -3.8042    0.0000 C   0  0  0  0  0  0  0  0  0  0  0  0
    4.3042   -4.2167    0.0000 C   0  0  0  0  0  0  0  0  0  0  0  0
    5.0167   -2.9750    0.0000 C   0  0  0  0  0  0  0  0  0  0  0  0
    4.3042   -2.5667    0.0000 C   0  0  0  0  0  0  0  0  0  0  0  0
    3.5792   -2.9750    0.0000 C   0  0  0  0  0  0  0  0  0  0  0  0
    3.5792   -3.8042    0.0000 C   0  0  0  0  0  0  0  0  0  0  0  0
    5.7292   -4.2167    0.0000 C   0  0  0  0  0  0  0  0  0  0  0  0
    6.4417   -3.8042    0.0000 C   0  0  0  0  0  0  0  0  0  0  0  0
    5.7292   -2.5542    0.0000 O   0  0  0  0  0  0  0  0  0  0  0  0
    5.7292   -5.0417    0.0000 C   0  0  0  0  0  0  0  0  0  0  0  0
    2.8667   -4.2167    0.0000 O   0  0  0  0  0  0  0  0  0  0  0  0
    6.4417   -2.9750    0.0000 C   0  0  0  0  0  0  0  0  0  0  0  0
    7.1667   -4.2167    0.0000 C   0  0  0  0  0  0  0  0  0  0  0  0
    5.0167   -5.4542    0.0000 C   0  0  0  0  0  0  0  0  0  0  0  0
    2.8667   -2.5542    0.0000 O   0  0  0  0  0  0  0  0  0  0  0  0
    7.8792   -2.9750    0.0000 C   0  0  0  0  0  0  0  0  0  0  0  0
    7.8792   -3.8042    0.0000 C   0  0  0  0  0  0  0  0  0  0  0  0
    7.1542   -2.5667    0.0000 C   0  0  0  0  0  0  0  0  0  0  0  0
    8.6042   -2.5542    0.0000 O   0  0  0  0  0  0  0  0  0  0  0  0
    2.8667   -1.7250    0.0000 C   0  0  0  0  0  0  0  0  0  0  0  0
  2  1  2  0
  3  1  1  0
  4  3  1  0
  5  4  2  0
  6  2  1  0
  7  1  1  0
  8  7  1  0
  9  3  2  0
 10  7  1  0
 11  6  2  0
 12  8  2  0
 13  8  1  0
 14 10  2  0
 15  5  1  0
 16 17  1  0
 17 13  2  0
 18 12  1  0
 19 16  1  0
 20 15  1  0
  6  5  1  0
 18 16  2  0
M  END
>  <ID>  (1927) 


>  <MOLENAME>  (1927) 
DALBERGIONE. 4-METHOXY-4'-HYDROXY-

>  <therap>  (1927) 
nan

>  <ref>  (1927) 
Chem Commun 1968: 1392; mp 174-176 C (blackens)

>  <cas#>  (1927) 
nan

>  <source>  (1927) 
Dalbergia spp

>  <status>  (1927) 
undetermined activity

>  <tradename>  (1927) 
nan

>  <SMILES>  (1927) 
C=CC(C1=CC(=O)C(OC)=CC1=O)c1ccc(O)cc1

>  <standardized_failed>  (1927) 
False

$$$$

     RDKit          2D

 23 25  0  0  0  0  0  0  0  0999 V2000
    2.9167   -5.8792    0.0000 C   0  0  0  0  0  0  0  0  0  0  0  0
    4.3500   -5.8750    0.0000 C   0  0  0  0  0  0  0  0  0  0  0  0
    3.6375   -6.2917    0.0000 C   0  0  0  0  0  0  0  0  0  0  0  0
    4.3417   -5.0417    0.0000 C   0  0  0  0  0  0  0  0  0  0  0  0
    2.9167   -5.0542    0.0000 C   0  0  0  0  0  0  0  0  0  0  0  0
    3.6292   -4.6375    0.0000 O   0  0  0  0  0  0  0  0  0  0  0  0
    2.2042   -6.2917    0.0000 C   0  0  0  0  0  0  0  0  0  0  0  0
    2.2042   -4.6417    0.0000 C   0  0  0  0  0  0  0  0  0  0  0  0
    5.0542   -4.6292    0.0000 C   0  0  0  0  0  0  0  0  0  0  0  0
    1.4917   -5.0542    0.0000 C   0  0  0  0  0  0  0  0  0  0  0  0
    1.4917   -5.8792    0.0000 C   0  0  0  0  0  0  0  0  0  0  0  0
    5.7667   -5.0417    0.0000 C   0  0  0  0  0  0  0  0  0  0  0  0
    6.4792   -4.6250    0.0000 C   0  0  0  0  0  0  0  0  0  0  0  0
    3.6375   -7.1167    0.0000 O   0  0  0  0  0  0  0  0  0  0  0  0
    6.4792   -3.8000    0.0000 C   0  0  0  0  0  0  0  0  0  0  0  0
    5.0500   -3.8042    0.0000 C   0  0  0  0  0  0  0  0  0  0  0  0
    5.0667   -6.2792    0.0000 O   0  0  0  0  0  0  0  0  0  0  0  0
    5.7542   -3.3917    0.0000 C   0  0  0  0  0  0  0  0  0  0  0  0
    2.1917   -3.8167    0.0000 O   0  0  0  0  0  0  0  0  0  0  0  0
    2.2042   -7.1167    0.0000 O   0  0  0  0  0  0  0  0  0  0  0  0
    0.7792   -4.6417    0.0000 O   0  0  0  0  0  0  0  0  0  0  0  0
    7.2000   -5.0292    0.0000 O   0  0  0  0  0  0  0  0  0  0  0  0
    7.1917   -3.3792    0.0000 O   0  0  0  0  0  0  0  0  0  0  0  0
  2  3  1  0
  3  1  1  0
  4  6  1  0
  5  1  2  0
  6  5  1  0
  7  1  1  0
  8  5  1  0
  9  4  1  0
 10 11  1  0
 11  7  2  0
 12  9  2  0
 13 12  1  0
 14  3  2  0
 15 18  1  0
 16  9  1  0
 17  2  1  0
 18 16  2  0
 19  8  1  0
 20  7  1  0
 21 10  1  0
 22 13  1  0
 23 15  1  0
 10  8  2  0
  4  2  2  0
 15 13  2  0
M  END
>  <ID>  (1928) 


>  <MOLENAME>  (1928) 
GOSSYPETIN

>  <therap>  (1928) 
nan

>  <ref>  (1928) 
J Chem Soc 1929:24

>  <cas#>  (1928) 
489-35-0

>  <source>  (1928) 
widespread in plants

>  <status>  (1928) 
undetermined activity

>  <tradename>  (1928) 
nan

>  <SMILES>  (1928) 
O=c1c(O)c(-c2cc(O)c(O)cc2)oc2c1c(O)cc(O)c2O

>  <standardized_failed>  (1928) 
False

$$$$

     RDKit          2D

 10  9  0  0  0  0  0  0  0  0999 V2000
    6.6917   -7.4542    0.0000 C   0  0  0  0  0  0  0  0  0  0  0  0
    4.9375   -7.4625    0.0000 C   0  0  0  0  0  0  0  0  0  0  0  0
    7.4042   -7.0417    0.0000 C   0  0  0  0  0  0  0  0  0  0  0  0
    5.9792   -7.0417    0.0000 C   0  0  0  0  0  0  0  0  0  0  0  0
    4.9125   -8.1792    0.0000 O   0  0  0  0  0  0  0  0  0  0  0  0
    7.4000   -6.2167    0.0000 O   0  0  0  0  0  0  0  0  0  0  0  0
    5.9542   -6.3792    0.0000 N   0  0  0  0  0  0  0  0  0  0  0  0
    4.2875   -7.0250    0.0000 O   0  0  0  0  0  0  0  0  0  0  0  0
    8.1167   -7.4500    0.0000 O   0  0  0  0  0  0  0  0  0  0  0  0
    5.2417   -5.9750    0.0000 C   0  0  0  0  0  0  0  0  0  0  0  0
  4  2  1  0
  3  1  1  0
  4  1  1  6
  5  2  2  0
  6  3  2  0
  7  4  1  0
  8  2  1  0
  9  3  1  0
 10  7  1  0
M  END
>  <ID>  (1929) 


>  <MOLENAME>  (1929) 
N-METHYL-D-ASPARTIC ACID (NMDA)

>  <therap>  (1929) 
NMDA agonist

>  <ref>  (1929) 
nan

>  <cas#>  (1929) 
6384-92-5

>  <source>  (1929) 
synthetic

>  <status>  (1929) 
experimental

>  <tradename>  (1929) 
nan

>  <SMILES>  (1929) 
CN[C@H](CC(=O)O)C(=O)O

>  <standardized_failed>  (1929) 
False

$$$$

     RDKit          2D

 18 18  0  0  0  0  0  0  0  0999 V2000
    7.8167   -0.2542    0.0000 C   0  0  0  0  0  0  0  0  0  0  0  0
    8.4625   -0.6250    0.0000 C   0  0  0  0  0  0  0  0  0  0  0  0
   -0.7333   -0.2792    0.0000 C   0  0  0  0  0  0  0  0  0  0  0  0
   -1.4000    0.2083    0.0000 O   0  0  0  0  0  0  0  0  0  0  0  0
   -0.9875   -1.0667    0.0000 C   0  0  0  0  0  0  0  0  0  0  0  0
   -2.0667   -0.2792    0.0000 C   0  0  0  0  0  0  0  0  0  0  0  0
   -1.8125   -1.0667    0.0000 C   0  0  0  0  0  0  0  0  0  0  0  0
    7.1042    0.1583    0.0000 C   0  0  0  0  0  0  0  0  0  0  0  0
   -0.0208    0.1333    0.0000 C   0  0  0  0  0  0  0  0  0  0  0  0
    6.3917   -0.2542    0.0000 C   0  0  0  0  0  0  0  0  0  0  0  0
    0.6917   -0.2750    0.0000 C   0  0  0  0  0  0  0  0  0  0  0  0
    4.2542    0.1458    0.0000 C   0  0  0  0  0  0  0  0  0  0  0  0
    4.9667   -0.2625    0.0000 C   0  0  0  0  0  0  0  0  0  0  0  0
    5.6792    0.1500    0.0000 C   0  0  0  0  0  0  0  0  0  0  0  0
    1.4042    0.1375    0.0000 C   0  0  0  0  0  0  0  0  0  0  0  0
    2.1167   -0.2667    0.0000 C   0  0  0  0  0  0  0  0  0  0  0  0
    2.8292    0.1458    0.0000 C   0  0  0  0  0  0  0  0  0  0  0  0
    3.5417   -0.2667    0.0000 C   0  0  0  0  0  0  0  0  0  0  0  0
  2  1  3  0
  3  9  1  0
  4  3  1  0
  5  3  2  0
  6  4  1  0
  7  5  1  0
  8  1  1  0
  9 11  1  0
 10  8  1  0
 11 15  1  0
 12 13  1  0
 13 14  1  0
 14 10  1  0
 15 16  1  0
 16 17  1  0
 17 18  1  0
 18 12  1  0
  7  6  2  0
M  END
>  <ID>  (1930) 


>  <MOLENAME>  (1930) 
AVOCADYNOFURAN

>  <therap>  (1930) 
nan

>  <ref>  (1930) 
Tetrahedron 25:4617(1969); An Acad Brasil Cienc 42 (suplemento): 45 (1970)

>  <cas#>  (1930) 
24708-33-6

>  <source>  (1930) 
Persea spp and Elodia canadensis

>  <status>  (1930) 
undetermined activity

>  <tradename>  (1930) 
nan

>  <SMILES>  (1930) 
C#CCCCCCCCCCCCc1ccco1

>  <standardized_failed>  (1930) 
False

$$$$

     RDKit          2D

 36 39  0  0  0  0  0  0  0  0999 V2000
    5.9042   -3.7750    0.0000 C   0  0  0  0  0  0  0  0  0  0  0  0
    5.9042   -4.6000    0.0000 C   0  0  0  0  0  0  0  0  0  0  0  0
    4.4750   -3.7750    0.0000 C   0  0  0  0  0  0  0  0  0  0  0  0
    7.3292   -3.7750    0.0000 C   0  0  0  0  0  0  0  0  0  0  0  0
    6.6167   -3.3625    0.0000 C   0  0  0  0  0  0  0  0  0  0  0  0
    6.6167   -5.0125    0.0000 C   0  0  0  0  0  0  0  0  0  0  0  0
    7.3292   -4.6000    0.0000 C   0  0  0  0  0  0  0  0  0  0  0  0
    5.1917   -3.3625    0.0000 C   0  0  0  0  0  0  0  0  0  0  0  0
    3.0417   -2.9500    0.0000 C   0  0  0  0  0  0  0  0  0  0  0  0
    8.7625   -3.7750    0.0000 C   0  0  0  0  0  0  0  0  0  0  0  0
    5.1917   -5.0125    0.0000 C   0  0  0  0  0  0  0  0  0  0  0  0
    4.4750   -4.6000    0.0000 C   0  0  0  0  0  0  0  0  0  0  0  0
    8.0417   -3.3625    0.0000 C   0  0  0  0  0  0  0  0  0  0  0  0
    3.0417   -2.1167    0.0000 C   0  0  0  0  0  0  0  0  0  0  0  0
    2.3167   -1.7042    0.0000 C   0  0  0  0  0  0  0  0  0  0  0  0
    3.7625   -3.3625    0.0000 O   0  0  0  0  0  0  0  0  0  0  0  0
    2.3167   -3.3625    0.0000 O   0  0  0  0  0  0  0  0  0  0  0  0
    8.7625   -4.6000    0.0000 C   0  0  0  0  0  0  0  0  0  0  0  0
    1.6042   -2.1167    0.0000 C   0  0  0  0  0  0  0  0  0  0  0  0
    1.6042   -2.9500    0.0000 C   0  0  0  0  0  0  0  0  0  0  0  0
    8.0417   -5.0125    0.0000 C   0  0  0  0  0  0  0  0  0  0  0  0
    9.4792   -3.3625    0.0000 C   0  0  0  0  0  0  0  0  0  0  0  0
    6.6167   -5.8375    0.0000 O   0  0  0  0  0  0  0  0  0  0  0  0
    6.6167   -2.5375    0.0000 O   0  0  0  0  0  0  0  0  0  0  0  0
    9.4875   -2.5375    0.0000 O   0  0  0  0  0  0  0  0  0  0  0  0
    5.1917   -2.5375    0.0000 O   0  0  0  0  0  0  0  0  0  0  0  0
    5.1917   -5.8375    0.0000 O   0  0  0  0  0  0  0  0  0  0  0  0
    3.7542   -5.0250    0.0000 O   0  0  0  0  0  0  0  0  0  0  0  0
    3.7625   -1.7042    0.0000 O   0  0  0  0  0  0  0  0  0  0  0  0
    2.3167   -0.8792    0.0000 O   0  0  0  0  0  0  0  0  0  0  0  0
    9.4792   -5.0250    0.0000 O   0  0  0  0  0  0  0  0  0  0  0  0
    0.8917   -1.7042    0.0000 O   0  0  0  0  0  0  0  0  0  0  0  0
   10.1917   -3.7792    0.0000 O   0  0  0  0  0  0  0  0  0  0  0  0
    8.0417   -2.5375    0.0000 C   0  0  0  0  0  0  0  0  0  0  0  0
    0.8917   -3.3542    0.0000 C   0  0  0  0  0  0  0  0  0  0  0  0
    0.2625   -2.8250    0.0000 O   0  0  0  0  0  0  0  0  0  0  0  0
  2  1  2  0
  3  8  2  0
  4  5  1  0
  5  1  1  0
  6  2  1  0
  7  4  2  0
  8  1  1  0
  9 16  1  1
 10 13  2  0
 11  2  1  0
 12  3  1  0
 13  4  1  0
 14  9  1  0
 15 14  1  0
 16  3  1  0
 17  9  1  0
 18 10  1  0
 19 20  1  0
 20 17  1  0
 21  7  1  0
 22 10  1  0
 23  6  2  0
 24  5  2  0
 25 22  2  0
 26  8  1  0
 27 11  1  0
 28 12  1  0
 14 29  1  1
 15 30  1  6
 31 18  1  0
 19 32  1  1
 33 22  1  0
 34 13  1  0
 20 35  1  6
 36 35  1  0
 12 11  2  0
  7  6  1  0
 21 18  2  0
 19 15  1  0
M  END
>  <ID>  (1931) 


>  <MOLENAME>  (1931) 
CARMINIC ACID

>  <therap>  (1931) 
nan

>  <ref>  (1931) 
nan

>  <cas#>  (1931) 
1260-17-9

>  <source>  (1931) 
Dactylopius coccus (cochineal)

>  <status>  (1931) 
undetermined activity

>  <tradename>  (1931) 
nan

>  <SMILES>  (1931) 
Cc1c(C(=O)O)c(O)cc2c1C(=O)c1c(C2=O)c(O)c(O)c(O[C@H]2O[C@H](CO)[C@@H](O)[C@H](O)[C@H]2O)c1O

>  <standardized_failed>  (1931) 
False

$$$$

     RDKit          2D

 23 25  0  0  0  0  0  0  0  0999 V2000
    2.2542   -5.1917    0.0000 C   0  0  0  0  0  0  0  0  0  0  0  0
    2.9792   -5.6042    0.0000 C   0  0  0  0  0  0  0  0  0  0  0  0
    2.2542   -4.3667    0.0000 C   0  0  0  0  0  0  0  0  0  0  0  0
    3.6917   -5.1917    0.0000 C   0  0  0  0  0  0  0  0  0  0  0  0
    2.9667   -3.9542    0.0000 O   0  0  0  0  0  0  0  0  0  0  0  0
    1.5417   -5.6125    0.0000 C   0  0  0  0  0  0  0  0  0  0  0  0
    1.5417   -3.9542    0.0000 C   0  0  0  0  0  0  0  0  0  0  0  0
    5.1292   -7.6542    0.0000 C   0  0  0  0  0  0  0  0  0  0  0  0
    3.6875   -4.3625    0.0000 C   0  0  0  0  0  0  0  0  0  0  0  0
    4.4042   -5.6000    0.0000 C   0  0  0  0  0  0  0  0  0  0  0  0
    2.9792   -6.4292    0.0000 O   0  0  0  0  0  0  0  0  0  0  0  0
    4.4167   -8.0667    0.0000 C   0  0  0  0  0  0  0  0  0  0  0  0
    5.1292   -6.8292    0.0000 C   0  0  0  0  0  0  0  0  0  0  0  0
    4.4125   -6.4250    0.0000 C   0  0  0  0  0  0  0  0  0  0  0  0
    3.7042   -7.6625    0.0000 C   0  0  0  0  0  0  0  0  0  0  0  0
    0.8292   -4.3750    0.0000 C   0  0  0  0  0  0  0  0  0  0  0  0
    0.8292   -5.2000    0.0000 C   0  0  0  0  0  0  0  0  0  0  0  0
    3.7000   -6.8375    0.0000 C   0  0  0  0  0  0  0  0  0  0  0  0
    5.8417   -8.0667    0.0000 O   0  0  0  0  0  0  0  0  0  0  0  0
    4.4167   -8.8917    0.0000 O   0  0  0  0  0  0  0  0  0  0  0  0
    0.1167   -3.9542    0.0000 O   0  0  0  0  0  0  0  0  0  0  0  0
    5.8417   -8.8917    0.0000 C   0  0  0  0  0  0  0  0  0  0  0  0
   -0.6000   -4.3667    0.0000 C   0  0  0  0  0  0  0  0  0  0  0  0
  2  1  1  0
  3  1  2  0
  4  2  1  0
  5  3  1  0
  6  1  1  0
  7  3  1  0
  8 13  2  0
  9  5  1  0
 10  4  1  0
 11  2  2  0
 12 15  2  0
 13 14  1  0
 14 10  1  0
 15 18  1  0
 16 17  1  0
 17  6  2  0
 18 14  2  0
 19  8  1  0
 20 12  1  0
 21 16  1  0
 22 19  1  0
 23 21  1  0
  7 16  2  0
  4  9  1  0
  8 12  1  0
M  END
>  <ID>  (1932) 


>  <MOLENAME>  (1932) 
DEOXYSAPPANONE B 7.3'-DIMETHYL ETHER

>  <therap>  (1932) 
nan

>  <ref>  (1932) 
Chem Pharm Bull 34: 2506 (1986); 35: 3597 (1987)

>  <cas#>  (1932) 
nan

>  <source>  (1932) 
Caesalpinia sappan

>  <status>  (1932) 
undetermined activity

>  <tradename>  (1932) 
nan

>  <SMILES>  (1932) 
COc1cc2c(cc1)C(=O)C(Cc1ccc(O)c(OC)c1)CO2

>  <standardized_failed>  (1932) 
False

$$$$

     RDKit          2D

 19 20  0  0  0  0  0  0  0  0999 V2000
    4.9625   -2.9042    0.0000 C   0  0  0  0  0  0  0  0  0  0  0  0
    4.9625   -2.0792    0.0000 C   0  0  0  0  0  0  0  0  0  0  0  0
    4.2500   -1.6667    0.0000 C   0  0  0  0  0  0  0  0  0  0  0  0
    5.6792   -3.3250    0.0000 C   0  0  0  0  0  0  0  0  0  0  0  0
    4.2500   -3.3167    0.0000 C   0  0  0  0  0  0  0  0  0  0  0  0
    5.6792   -4.1542    0.0000 C   0  0  0  0  0  0  0  0  0  0  0  0
    3.5292   -2.0792    0.0000 C   0  0  0  0  0  0  0  0  0  0  0  0
    6.3917   -2.9125    0.0000 O   0  0  0  0  0  0  0  0  0  0  0  0
    3.5292   -2.9042    0.0000 C   0  0  0  0  0  0  0  0  0  0  0  0
    4.9667   -4.5667    0.0000 C   0  0  0  0  0  0  0  0  0  0  0  0
    6.3917   -4.5667    0.0000 C   0  0  0  0  0  0  0  0  0  0  0  0
    5.6792   -1.6542    0.0000 O   0  0  0  0  0  0  0  0  0  0  0  0
    4.2500   -0.8417    0.0000 O   0  0  0  0  0  0  0  0  0  0  0  0
    5.6792   -5.8042    0.0000 C   0  0  0  0  0  0  0  0  0  0  0  0
    6.3917   -5.3917    0.0000 C   0  0  0  0  0  0  0  0  0  0  0  0
    4.9667   -5.3917    0.0000 C   0  0  0  0  0  0  0  0  0  0  0  0
    2.8125   -1.6625    0.0000 O   0  0  0  0  0  0  0  0  0  0  0  0
    5.6917   -6.6292    0.0000 O   0  0  0  0  0  0  0  0  0  0  0  0
    2.8167   -0.8292    0.0000 C   0  0  0  0  0  0  0  0  0  0  0  0
  2  1  2  0
  3  2  1  0
  4  1  1  0
  5  1  1  0
  6  4  1  0
  7  9  1  0
  8  4  2  0
  9  5  2  0
 10  6  2  0
 11  6  1  0
 12  2  1  0
 13  3  1  0
 14 15  1  0
 15 11  2  0
 16 10  1  0
 17  7  1  0
 18 14  1  0
 19 17  1  0
  3  7  2  0
 16 14  2  0
M  END
>  <ID>  (1933) 


>  <MOLENAME>  (1933) 
2.3.4'-TRIHYDROXY-4-METHOXYBENZOPHENONE

>  <therap>  (1933) 
nan

>  <ref>  (1933) 
nan

>  <cas#>  (1933) 
nan

>  <source>  (1933) 
derivative

>  <status>  (1933) 
undetermined activity

>  <tradename>  (1933) 
nan

>  <SMILES>  (1933) 
COc1c(O)c(O)c(C(=O)c2ccc(O)cc2)cc1

>  <standardized_failed>  (1933) 
False

$$$$

     RDKit          2D

 29 31  0  0  0  0  0  0  0  0999 V2000
    1.9750   -2.6125    0.0000 C   0  0  0  0  0  0  0  0  0  0  0  0
    2.6292   -2.9875    0.0000 C   0  0  0  0  0  0  0  0  0  0  0  0
    3.2875   -2.6125    0.0000 C   0  0  0  0  0  0  0  0  0  0  0  0
    1.3250   -2.9875    0.0000 C   0  0  0  0  0  0  0  0  0  0  0  0
    1.9750   -1.8542    0.0000 C   0  0  0  0  0  0  0  0  0  0  0  0
    3.9375   -2.9875    0.0000 C   0  0  0  0  0  0  0  0  0  0  0  0
    0.6750   -2.6125    0.0000 C   0  0  0  0  0  0  0  0  0  0  0  0
    3.2875   -1.8542    0.0000 C   0  0  0  0  0  0  0  0  0  0  0  0
    2.6292   -1.4792    0.0000 O   0  0  0  0  0  0  0  0  0  0  0  0
    5.2292   -3.7375    0.0000 C   0  0  0  0  0  0  0  0  0  0  0  0
    1.3250   -1.4792    0.0000 C   0  0  0  0  0  0  0  0  0  0  0  0
    0.6750   -1.8542    0.0000 C   0  0  0  0  0  0  0  0  0  0  0  0
    4.5875   -4.1125    0.0000 C   0  0  0  0  0  0  0  0  0  0  0  0
    5.2292   -2.9875    0.0000 C   0  0  0  0  0  0  0  0  0  0  0  0
    3.9375   -3.7375    0.0000 C   0  0  0  0  0  0  0  0  0  0  0  0
    4.5875   -2.6125    0.0000 C   0  0  0  0  0  0  0  0  0  0  0  0
    2.6292   -3.7375    0.0000 O   0  0  0  0  0  0  0  0  0  0  0  0
    1.3250   -3.7375    0.0000 O   0  0  0  0  0  0  0  0  0  0  0  0
    0.0250   -2.9875    0.0000 O   0  0  0  0  0  0  0  0  0  0  0  0
    5.8792   -4.1125    0.0000 O   0  0  0  0  0  0  0  0  0  0  0  0
    0.0250   -1.4792    0.0000 O   0  0  0  0  0  0  0  0  0  0  0  0
    5.8792   -2.6125    0.0000 O   0  0  0  0  0  0  0  0  0  0  0  0
    4.5875   -4.8542    0.0000 O   0  0  0  0  0  0  0  0  0  0  0  0
    0.6750   -4.1125    0.0000 C   0  0  0  0  0  0  0  0  0  0  0  0
    0.0167   -3.7375    0.0000 C   0  0  0  0  0  0  0  0  0  0  0  0
    5.8792   -4.8625    0.0000 C   0  0  0  0  0  0  0  0  0  0  0  0
    5.2292   -5.2292    0.0000 C   0  0  0  0  0  0  0  0  0  0  0  0
    0.0167   -0.7250    0.0000 C   0  0  0  0  0  0  0  0  0  0  0  0
    6.5250   -2.9875    0.0000 C   0  0  0  0  0  0  0  0  0  0  0  0
  2  1  1  0
  3  2  1  0
  4  1  2  0
  5  1  1  0
  6  3  1  0
  7  4  1  0
  8  9  1  0
  9  5  1  0
 10 14  2  0
 11  5  2  0
 12 11  1  0
 13 15  2  0
 14 16  1  0
 15  6  1  0
 16  6  2  0
 17  2  2  0
 18  4  1  0
 19  7  1  0
 20 10  1  0
 21 12  1  0
 22 14  1  0
 23 13  1  0
 24 18  1  0
 25 19  1  0
 26 20  1  0
 27 23  1  0
 28 21  1  0
 29 22  1  0
  7 12  2  0
  3  8  2  0
 13 10  1  0
M  END
>  <ID>  (1934) 


>  <MOLENAME>  (1934) 
IRIGENIN TRIMETHYL ETHER

>  <therap>  (1934) 
nan

>  <ref>  (1934) 
Prog Chem Org Nat Prod 43: 1 (1983)

>  <cas#>  (1934) 
nan

>  <source>  (1934) 
derivative

>  <status>  (1934) 
undetermined activity

>  <tradename>  (1934) 
nan

>  <SMILES>  (1934) 
COc1cc(-c2coc3cc(OC)c(OC)c(OC)c3c2=O)cc(OC)c1OC

>  <standardized_failed>  (1934) 
False

$$$$

     RDKit          2D

 20 21  0  0  0  0  0  0  0  0999 V2000
    3.1042  -17.7375    0.0000 C   0  0  0  0  0  0  0  0  0  0  0  0
    3.8167  -18.1417    0.0000 C   0  0  0  0  0  0  0  0  0  0  0  0
    3.8167  -18.9667    0.0000 C   0  0  0  0  0  0  0  0  0  0  0  0
    4.5292  -19.3750    0.0000 C   0  0  0  0  0  0  0  0  0  0  0  0
    3.1042  -16.9042    0.0000 C   0  0  0  0  0  0  0  0  0  0  0  0
    2.3792  -18.1500    0.0000 C   0  0  0  0  0  0  0  0  0  0  0  0
    4.5292  -17.7292    0.0000 O   0  0  0  0  0  0  0  0  0  0  0  0
    2.3792  -16.4917    0.0000 C   0  0  0  0  0  0  0  0  0  0  0  0
    4.5292  -20.1917    0.0000 C   0  0  0  0  0  0  0  0  0  0  0  0
    1.6750  -17.7375    0.0000 C   0  0  0  0  0  0  0  0  0  0  0  0
    4.5250  -21.8292    0.0000 C   0  0  0  0  0  0  0  0  0  0  0  0
    1.6750  -16.9125    0.0000 C   0  0  0  0  0  0  0  0  0  0  0  0
    3.8167  -16.4917    0.0000 O   0  0  0  0  0  0  0  0  0  0  0  0
    5.2292  -20.6000    0.0000 C   0  0  0  0  0  0  0  0  0  0  0  0
    3.8125  -20.6042    0.0000 C   0  0  0  0  0  0  0  0  0  0  0  0
    3.8125  -21.4167    0.0000 C   0  0  0  0  0  0  0  0  0  0  0  0
    5.2375  -21.4167    0.0000 C   0  0  0  0  0  0  0  0  0  0  0  0
    0.9542  -18.1500    0.0000 O   0  0  0  0  0  0  0  0  0  0  0  0
    4.5250  -22.6542    0.0000 O   0  0  0  0  0  0  0  0  0  0  0  0
    3.8125  -23.0667    0.0000 C   0  0  0  0  0  0  0  0  0  0  0  0
  2  1  1  0
  3  2  1  0
  4  3  2  0
  5  1  2  0
  6  1  1  0
  7  2  2  0
  8  5  1  0
  9  4  1  0
 10  6  2  0
 11 16  2  0
 12 10  1  0
 13  5  1  0
 14  9  1  0
 15  9  2  0
 16 15  1  0
 17 14  2  0
 18 10  1  0
 19 11  1  0
 20 19  1  0
 12  8  2  0
 11 17  1  0
M  END
>  <ID>  (1935) 


>  <MOLENAME>  (1935) 
2'.5'-DIHYDROXY-4-METHOXYCHALCONE

>  <therap>  (1935) 
nan

>  <ref>  (1935) 
Chem Abs 92:55042v (1980)

>  <cas#>  (1935) 
6342-92-3

>  <source>  (1935) 
Cassia javanica

>  <status>  (1935) 
undetermined activity

>  <tradename>  (1935) 
nan

>  <SMILES>  (1935) 
COc1ccc(/C=C/C(=O)c2c(O)ccc(O)c2)cc1

>  <standardized_failed>  (1935) 
False

$$$$

     RDKit          2D

 20 21  0  0  0  0  0  0  0  0999 V2000
   10.0625   -2.7583    0.0000 C   0  0  0  0  0  0  0  0  0  0  0  0
    9.3500   -2.3458    0.0000 C   0  0  0  0  0  0  0  0  0  0  0  0
   10.0625   -3.5833    0.0000 C   0  0  0  0  0  0  0  0  0  0  0  0
    8.6333   -2.7583    0.0000 C   0  0  0  0  0  0  0  0  0  0  0  0
    9.3500   -3.9958    0.0000 C   0  0  0  0  0  0  0  0  0  0  0  0
    8.6333   -3.5833    0.0000 C   0  0  0  0  0  0  0  0  0  0  0  0
   10.0625   -5.2333    0.0000 C   0  0  0  0  0  0  0  0  0  0  0  0
   10.0625   -6.0625    0.0000 C   0  0  0  0  0  0  0  0  0  0  0  0
    9.3500   -1.5208    0.0000 O   0  0  0  0  0  0  0  0  0  0  0  0
   10.7833   -4.0083    0.0000 O   0  0  0  0  0  0  0  0  0  0  0  0
    7.9125   -2.3458    0.0000 O   0  0  0  0  0  0  0  0  0  0  0  0
    9.3500   -4.8208    0.0000 C   0  0  0  0  0  0  0  0  0  0  0  0
   10.7750   -6.4750    0.0000 C   0  0  0  0  0  0  0  0  0  0  0  0
    7.2000   -2.7625    0.0000 C   0  0  0  0  0  0  0  0  0  0  0  0
   10.7750   -4.8417    0.0000 C   0  0  0  0  0  0  0  0  0  0  0  0
   10.7750   -7.3042    0.0000 C   0  0  0  0  0  0  0  0  0  0  0  0
   11.4917   -6.0625    0.0000 C   0  0  0  0  0  0  0  0  0  0  0  0
   11.4875   -7.7167    0.0000 C   0  0  0  0  0  0  0  0  0  0  0  0
   12.2083   -6.4750    0.0000 C   0  0  0  0  0  0  0  0  0  0  0  0
   12.2083   -7.3042    0.0000 C   0  0  0  0  0  0  0  0  0  0  0  0
  2  1  2  0
  3  1  1  0
  4  2  1  0
  5  3  2  0
  6  5  1  0
  7 12  1  0
  8  7  2  0
  9  2  1  0
 10  3  1  0
 11  4  1  0
 12  5  1  0
 13  8  1  0
 14 11  1  0
 15 10  1  0
 16 13  2  0
 17 13  1  0
 18 16  1  0
 19 17  2  0
 20 19  1  0
  4  6  2  0
 20 18  2  0
M  END
>  <ID>  (1936) 


>  <MOLENAME>  (1936) 
VIOLASTYRENE

>  <therap>  (1936) 
nan

>  <ref>  (1936) 
Chem Commun 1968:1390; Phytochemistry 17:1375,1395 (1978)

>  <cas#>  (1936) 
19034-96-9

>  <source>  (1936) 
Dalbergia miscolobium

>  <status>  (1936) 
undetermined activity

>  <tradename>  (1936) 
nan

>  <SMILES>  (1936) 
COc1cc(C/C=C/c2ccccc2)c(OC)cc1O

>  <standardized_failed>  (1936) 
False

$$$$

     RDKit          2D

 23 25  0  0  0  0  0  0  0  0999 V2000
   -0.7208   -0.4792    0.0000 C   0  0  0  0  0  0  0  0  0  0  0  0
   -1.6208   -0.9667    0.0000 C   0  0  0  0  0  0  0  0  0  0  0  0
   -2.4958   -0.4375    0.0000 C   0  0  0  0  0  0  0  0  0  0  0  0
   -2.4958    0.5500    0.0000 C   0  0  0  0  0  0  0  0  0  0  0  0
    0.1792   -1.0042    0.0000 C   0  0  0  0  0  0  0  0  0  0  0  0
   -1.6208    1.0833    0.0000 O   0  0  0  0  0  0  0  0  0  0  0  0
   -0.7208    0.5833    0.0000 C   0  0  0  0  0  0  0  0  0  0  0  0
   -3.3708   -0.9667    0.0000 C   0  0  0  0  0  0  0  0  0  0  0  0
   -3.3708    1.0833    0.0000 C   0  0  0  0  0  0  0  0  0  0  0  0
    2.8292   -0.5042    0.0000 C   0  0  0  0  0  0  0  0  0  0  0  0
    1.0792   -0.5042    0.0000 C   0  0  0  0  0  0  0  0  0  0  0  0
   -1.6208   -1.9667    0.0000 O   0  0  0  0  0  0  0  0  0  0  0  0
    1.9500   -1.0042    0.0000 C   0  0  0  0  0  0  0  0  0  0  0  0
    2.8500    0.5125    0.0000 C   0  0  0  0  0  0  0  0  0  0  0  0
    1.9500    1.0125    0.0000 C   0  0  0  0  0  0  0  0  0  0  0  0
   -4.2458    0.5833    0.0000 C   0  0  0  0  0  0  0  0  0  0  0  0
   -4.2458   -0.4792    0.0000 C   0  0  0  0  0  0  0  0  0  0  0  0
    1.0792    0.4833    0.0000 C   0  0  0  0  0  0  0  0  0  0  0  0
    3.7000   -1.0792    0.0000 O   0  0  0  0  0  0  0  0  0  0  0  0
    3.7500    1.0125    0.0000 O   0  0  0  0  0  0  0  0  0  0  0  0
   -5.1458    1.1208    0.0000 O   0  0  0  0  0  0  0  0  0  0  0  0
    4.6500    0.5125    0.0000 C   0  0  0  0  0  0  0  0  0  0  0  0
   -5.1458    2.1458    0.0000 C   0  0  0  0  0  0  0  0  0  0  0  0
  2  1  1  0
  3  2  1  0
  4  6  1  0
  5  1  2  0
  6  7  1  0
  7  1  1  0
  8  3  2  0
  9  4  2  0
 10 13  2  0
 11  5  1  0
 12  2  2  0
 13 11  1  0
 14 15  2  0
 15 18  1  0
 16  9  1  0
 17  8  1  0
 18 11  2  0
 19 10  1  0
 20 14  1  0
 21 16  1  0
 22 20  1  0
 23 21  1  0
  4  3  1  0
 16 17  2  0
 10 14  1  0
M  END
>  <ID>  (1937) 


>  <MOLENAME>  (1937) 
SAPPANONE A DIMETHYL ETHER

>  <therap>  (1937) 
nan

>  <ref>  (1937) 
Chem Pharm Bull 34: 2506 (1986); 35: 3597 (1987)

>  <cas#>  (1937) 
nan

>  <source>  (1937) 
Caesalpinia sappan

>  <status>  (1937) 
undetermined activity

>  <tradename>  (1937) 
nan

>  <SMILES>  (1937) 
COc1ccc2C(=O)/C(=C/c3ccc(OC)c(O)c3)COc2c1

>  <standardized_failed>  (1937) 
False

$$$$

     RDKit          2D

 29 33  0  0  0  0  0  0  0  0999 V2000
   -0.9708   -0.2792    0.0000 C   0  0  0  0  0  0  0  0  0  0  0  0
   -0.2333   -0.7000    0.0000 C   0  0  0  0  0  0  0  0  0  0  0  0
    0.4875    0.5625    0.0000 C   0  0  0  0  0  0  0  0  0  0  0  0
   -0.9708    0.5625    0.0000 C   0  0  0  0  0  0  0  0  0  0  0  0
   -1.6958   -0.7000    0.0000 C   0  0  0  0  0  0  0  0  0  0  0  0
    0.4875   -0.2792    0.0000 C   0  0  0  0  0  0  0  0  0  0  0  0
   -0.2333    0.9833    0.0000 O   0  0  0  0  0  0  0  0  0  0  0  0
    1.2042    0.9833    0.0000 C   0  0  0  0  0  0  0  0  0  0  0  0
   -2.4125   -0.2792    0.0000 C   0  0  0  0  0  0  0  0  0  0  0  0
    2.5500    1.1333    0.0000 O   0  0  0  0  0  0  0  0  0  0  0  0
    1.9500    0.5625    0.0000 C   0  0  0  0  0  0  0  0  0  0  0  0
    1.3875    1.7958    0.0000 C   0  0  0  0  0  0  0  0  0  0  0  0
    2.2042    1.8833    0.0000 C   0  0  0  0  0  0  0  0  0  0  0  0
   -1.6958   -1.5375    0.0000 C   0  0  0  0  0  0  0  0  0  0  0  0
   -2.4125    0.5625    0.0000 O   0  0  0  0  0  0  0  0  0  0  0  0
   -3.1333   -0.7000    0.0000 C   0  0  0  0  0  0  0  0  0  0  0  0
    1.2042   -0.7000    0.0000 C   0  0  0  0  0  0  0  0  0  0  0  0
   -2.4125   -1.9542    0.0000 C   0  0  0  0  0  0  0  0  0  0  0  0
   -3.1333   -1.5375    0.0000 C   0  0  0  0  0  0  0  0  0  0  0  0
   -1.6958    0.9833    0.0000 C   0  0  0  0  0  0  0  0  0  0  0  0
    2.6292    2.6333    0.0000 C   0  0  0  0  0  0  0  0  0  0  0  0
   -0.2333   -1.5375    0.0000 O   0  0  0  0  0  0  0  0  0  0  0  0
    1.9500   -0.2792    0.0000 C   0  0  0  0  0  0  0  0  0  0  0  0
    3.4667    2.6625    0.0000 C   0  0  0  0  0  0  0  0  0  0  0  0
   -2.4125   -2.8000    0.0000 O   0  0  0  0  0  0  0  0  0  0  0  0
   -3.8500   -1.9542    0.0000 O   0  0  0  0  0  0  0  0  0  0  0  0
    2.1875    3.3583    0.0000 C   0  0  0  0  0  0  0  0  0  0  0  0
   -3.8500   -2.8000    0.0000 C   0  0  0  0  0  0  0  0  0  0  0  0
   -3.1333   -3.2167    0.0000 C   0  0  0  0  0  0  0  0  0  0  0  0
  2  1  1  0
  3  7  1  0
  4  1  2  0
  5  1  1  0
  6  2  1  0
  7  4  1  0
  8  3  2  0
  9  5  2  0
 10 11  1  0
 11  8  1  0
 12  8  1  0
 13 12  1  0
 14  5  1  0
 15  9  1  0
 16  9  1  0
 17  6  2  0
 18 14  2  0
 19 18  1  0
 20  4  1  0
 21 13  1  0
 22  2  2  0
 23 17  1  0
 24 21  2  0
 25 18  1  0
 26 19  1  0
 27 21  1  0
 28 26  1  0
 29 25  1  0
 15 20  1  0
  3  6  1  0
 19 16  2  0
 11 23  2  0
 10 13  1  0
M  END
>  <ID>  (1938) 


>  <MOLENAME>  (1938) 
DEHYDROROTENONE

>  <therap>  (1938) 
nan

>  <ref>  (1938) 
Chem Rev 12: 181 (1933)

>  <cas#>  (1938) 
30990-44-4

>  <source>  (1938) 
Derris spp; rotenone derivative

>  <status>  (1938) 
undetermined activity

>  <tradename>  (1938) 
nan

>  <SMILES>  (1938) 
C=C(C)C1Cc2c3oc4c(-c5c(cc(OC)c(OC)c5)OC4)c(=O)c3ccc2O1

>  <standardized_failed>  (1938) 
False

$$$$

     RDKit          2D

 24 26  0  0  0  0  0  0  0  0999 V2000
    4.6792   -2.6917    0.0000 C   0  0  0  0  0  0  0  0  0  0  0  0
    6.8417   -4.7667    0.0000 C   0  0  0  0  0  0  0  0  0  0  0  0
    7.5542   -5.1917    0.0000 C   0  0  0  0  0  0  0  0  0  0  0  0
    5.3917   -2.2667    0.0000 O   0  0  0  0  0  0  0  0  0  0  0  0
    3.9417   -2.2667    0.0000 C   0  0  0  0  0  0  0  0  0  0  0  0
    6.8417   -3.9542    0.0000 C   0  0  0  0  0  0  0  0  0  0  0  0
    4.6792   -3.5292    0.0000 C   0  0  0  0  0  0  0  0  0  0  0  0
    6.1167   -3.5292    0.0000 C   0  0  0  0  0  0  0  0  0  0  0  0
    5.3917   -3.9542    0.0000 C   0  0  0  0  0  0  0  0  0  0  0  0
    7.5542   -3.5292    0.0000 C   0  0  0  0  0  0  0  0  0  0  0  0
    6.1167   -2.6917    0.0000 C   0  0  0  0  0  0  0  0  0  0  0  0
    3.2292   -2.6917    0.0000 C   0  0  0  0  0  0  0  0  0  0  0  0
    8.2792   -4.7667    0.0000 C   0  0  0  0  0  0  0  0  0  0  0  0
    3.9417   -3.9542    0.0000 C   0  0  0  0  0  0  0  0  0  0  0  0
    8.2792   -3.9542    0.0000 C   0  0  0  0  0  0  0  0  0  0  0  0
    3.2292   -3.5292    0.0000 C   0  0  0  0  0  0  0  0  0  0  0  0
    7.5542   -6.0292    0.0000 O   0  0  0  0  0  0  0  0  0  0  0  0
    3.9417   -1.4417    0.0000 O   0  0  0  0  0  0  0  0  0  0  0  0
    6.1167   -5.1917    0.0000 O   0  0  0  0  0  0  0  0  0  0  0  0
    2.5042   -2.2917    0.0000 O   0  0  0  0  0  0  0  0  0  0  0  0
    9.0042   -5.1917    0.0000 O   0  0  0  0  0  0  0  0  0  0  0  0
    4.6792   -1.0417    0.0000 C   0  0  0  0  0  0  0  0  0  0  0  0
    5.3917   -4.7667    0.0000 C   0  0  0  0  0  0  0  0  0  0  0  0
    9.0042   -6.0292    0.0000 C   0  0  0  0  0  0  0  0  0  0  0  0
  2  6  2  0
  3  2  1  0
  4  1  1  0
  5  1  1  0
  8  6  1  0
  7  1  2  0
  8  9  1  6
  9  7  1  0
 10  6  1  0
 11  4  1  0
 12  5  2  0
 13 15  1  0
 14  7  1  0
 15 10  2  0
 16 14  2  0
 17  3  1  0
 18  5  1  0
 19  2  1  0
 20 12  1  0
 21 13  1  0
 22 18  1  0
 23 19  1  0
 24 21  1  0
  8 11  1  0
 16 12  1  0
 13  3  2  0
M  END
>  <ID>  (1939) 


>  <MOLENAME>  (1939) 
DUARTIN (-)

>  <therap>  (1939) 
nan

>  <ref>  (1939) 
Phytochemistry 17: 1401 (1978)

>  <cas#>  (1939) 
52305-04-1

>  <source>  (1939) 
Dalbergia variabilis

>  <status>  (1939) 
undetermined activity

>  <tradename>  (1939) 
nan

>  <SMILES>  (1939) 
COc1c(O)c(OC)c([C@H]2COc3c(ccc(O)c3OC)C2)cc1

>  <standardized_failed>  (1939) 
False

$$$$

     RDKit          2D

 23 25  0  0  0  0  0  0  0  0999 V2000
    2.1292   -2.5292    0.0000 C   0  0  0  0  0  0  0  0  0  0  0  0
    2.8417   -2.1125    0.0000 C   0  0  0  0  0  0  0  0  0  0  0  0
    3.5625   -2.5167    0.0000 C   0  0  0  0  0  0  0  0  0  0  0  0
    1.4167   -2.1167    0.0000 C   0  0  0  0  0  0  0  0  0  0  0  0
    2.1292   -3.3542    0.0000 C   0  0  0  0  0  0  0  0  0  0  0  0
    4.2667   -2.1042    0.0000 C   0  0  0  0  0  0  0  0  0  0  0  0
    0.7042   -2.5292    0.0000 C   0  0  0  0  0  0  0  0  0  0  0  0
    3.5667   -3.3500    0.0000 C   0  0  0  0  0  0  0  0  0  0  0  0
    2.8542   -3.7667    0.0000 O   0  0  0  0  0  0  0  0  0  0  0  0
    5.6917   -1.2750    0.0000 C   0  0  0  0  0  0  0  0  0  0  0  0
    1.4167   -3.7667    0.0000 C   0  0  0  0  0  0  0  0  0  0  0  0
    0.7042   -3.3542    0.0000 C   0  0  0  0  0  0  0  0  0  0  0  0
    5.7000   -2.1000    0.0000 C   0  0  0  0  0  0  0  0  0  0  0  0
    4.9750   -0.8667    0.0000 C   0  0  0  0  0  0  0  0  0  0  0  0
    4.9875   -2.5167    0.0000 C   0  0  0  0  0  0  0  0  0  0  0  0
    4.2667   -1.2792    0.0000 C   0  0  0  0  0  0  0  0  0  0  0  0
    2.8417   -1.2875    0.0000 O   0  0  0  0  0  0  0  0  0  0  0  0
    1.4167   -1.2917    0.0000 O   0  0  0  0  0  0  0  0  0  0  0  0
   -0.0083   -2.1167    0.0000 O   0  0  0  0  0  0  0  0  0  0  0  0
    6.4042   -0.8542    0.0000 O   0  0  0  0  0  0  0  0  0  0  0  0
   -0.0083   -3.7667    0.0000 O   0  0  0  0  0  0  0  0  0  0  0  0
    4.9667   -0.0417    0.0000 O   0  0  0  0  0  0  0  0  0  0  0  0
    6.4125   -2.5125    0.0000 O   0  0  0  0  0  0  0  0  0  0  0  0
  2  1  1  0
  3  2  1  0
  4  1  2  0
  5  1  1  0
  6  3  1  0
  7  4  1  0
  8  9  1  0
  9  5  1  0
 10 14  2  0
 11  5  2  0
 12 11  1  0
 13 15  2  0
 14 16  1  0
 15  6  1  0
 16  6  2  0
 17  2  2  0
 18  4  1  0
 19  7  1  0
 20 10  1  0
 21 12  1  0
 22 14  1  0
 23 13  1  0
 12  7  2  0
  8  3  2  0
 10 13  1  0
M  END
>  <ID>  (1940) 


>  <MOLENAME>  (1940) 
IRIGENOL

>  <therap>  (1940) 
nan

>  <ref>  (1940) 
nan

>  <cas#>  (1940) 
4935-93-7

>  <source>  (1940) 
Iris spp

>  <status>  (1940) 
undetermined activity

>  <tradename>  (1940) 
nan

>  <SMILES>  (1940) 
O=c1c(-c2cc(O)c(O)c(O)c2)coc2cc(O)c(O)c(O)c12

>  <standardized_failed>  (1940) 
False

$$$$

     RDKit          2D

 13 12  0  0  0  0  0  0  0  0999 V2000
    4.9542   -4.6542    0.0000 C   0  0  0  0  0  0  0  0  0  0  0  0
    6.6125   -3.2292    0.0000 C   0  0  0  0  0  0  0  0  0  0  0  0
    5.3667   -3.9417    0.0000 C   0  0  0  0  0  0  0  0  0  0  0  0
    6.2000   -3.9417    0.0000 C   0  0  0  0  0  0  0  0  0  0  0  0
    4.1292   -4.6542    0.0000 O   0  0  0  0  0  0  0  0  0  0  0  0
    6.2000   -2.5167    0.0000 O   0  0  0  0  0  0  0  0  0  0  0  0
    5.3667   -5.3667    0.0000 O   0  0  0  0  0  0  0  0  0  0  0  0
    7.4417   -3.2292    0.0000 O   0  0  0  0  0  0  0  0  0  0  0  0
    4.9542   -3.2292    0.0000 C   0  0  0  0  0  0  0  0  0  0  0  0
    4.1292   -3.2292    0.0000 C   0  0  0  0  0  0  0  0  0  0  0  0
    2.8875   -2.5167    0.0000 C   0  0  0  0  0  0  0  0  0  0  0  0
    3.7167   -2.5167    0.0000 C   0  0  0  0  0  0  0  0  0  0  0  0
    2.4750   -1.8042    0.0000 C   0  0  0  0  0  0  0  0  0  0  0  0
  2  4  1  0
  3  1  1  0
  3  4  1  6
  5  1  2  0
  6  2  2  0
  7  1  1  0
  8  2  1  0
  3  9  1  0
 10  9  1  0
 11 12  1  0
 12 10  1  0
 13 11  1  0
M  END
>  <ID>  (1941) 


>  <MOLENAME>  (1941) 
NONIC ACID

>  <therap>  (1941) 
nan

>  <ref>  (1941) 
nan

>  <cas#>  (1941) 
nan

>  <source>  (1941) 
hydroysis product of actinonin

>  <status>  (1941) 
undetermined activity

>  <tradename>  (1941) 
nan

>  <SMILES>  (1941) 
CCCCC[C@H](CC(=O)O)C(=O)O

>  <standardized_failed>  (1941) 
False

$$$$

     RDKit          2D

 17 18  0  0  0  0  0  0  0  0999 V2000
    2.5417   -3.1917    0.0000 C   0  0  0  0  0  0  0  0  0  0  0  0
    1.8292   -3.6042    0.0000 C   0  0  0  0  0  0  0  0  0  0  0  0
    2.5417   -2.3625    0.0000 C   0  0  0  0  0  0  0  0  0  0  0  0
    3.2542   -3.6042    0.0000 C   0  0  0  0  0  0  0  0  0  0  0  0
    1.8292   -1.9542    0.0000 C   0  0  0  0  0  0  0  0  0  0  0  0
    1.1042   -3.1917    0.0000 C   0  0  0  0  0  0  0  0  0  0  0  0
    1.1042   -2.3625    0.0000 C   0  0  0  0  0  0  0  0  0  0  0  0
    3.2542   -4.4292    0.0000 C   0  0  0  0  0  0  0  0  0  0  0  0
    3.2542   -1.9417    0.0000 O   0  0  0  0  0  0  0  0  0  0  0  0
    3.9667   -3.1917    0.0000 C   0  0  0  0  0  0  0  0  0  0  0  0
    0.3917   -3.6042    0.0000 O   0  0  0  0  0  0  0  0  0  0  0  0
    2.5417   -4.8417    0.0000 C   0  0  0  0  0  0  0  0  0  0  0  0
    4.6917   -3.6042    0.0000 C   0  0  0  0  0  0  0  0  0  0  0  0
    3.9667   -2.3625    0.0000 C   0  0  0  0  0  0  0  0  0  0  0  0
    5.4042   -3.1917    0.0000 C   0  0  0  0  0  0  0  0  0  0  0  0
    4.6792   -1.9542    0.0000 C   0  0  0  0  0  0  0  0  0  0  0  0
    5.4042   -2.3625    0.0000 C   0  0  0  0  0  0  0  0  0  0  0  0
  2  1  2  0
  3  1  1  0
  4  1  1  0
  5  3  1  0
  6  2  1  0
  7  5  2  0
  8  4  1  0
  9  3  2  0
 10  4  1  0
 11  6  2  0
 12  8  2  0
 13 10  2  0
 14 10  1  0
 15 13  1  0
 16 14  2  0
 17 16  1  0
  7  6  1  0
 15 17  2  0
M  END
>  <ID>  (1942) 


>  <MOLENAME>  (1942) 
DALBERGIONE

>  <therap>  (1942) 
nan

>  <ref>  (1942) 
nan

>  <cas#>  (1942) 
nan

>  <source>  (1942) 
Dalbergia spp

>  <status>  (1942) 
undetermined activity

>  <tradename>  (1942) 
nan

>  <SMILES>  (1942) 
C=CC(C1=CC(=O)C=CC1=O)c1ccccc1

>  <standardized_failed>  (1942) 
False

$$$$

     RDKit          2D

 18 19  0  0  0  0  0  0  0  0999 V2000
    3.1042  -17.7375    0.0000 C   0  0  0  0  0  0  0  0  0  0  0  0
    3.8167  -18.9667    0.0000 C   0  0  0  0  0  0  0  0  0  0  0  0
    3.8167  -18.1417    0.0000 C   0  0  0  0  0  0  0  0  0  0  0  0
    4.5292  -19.3750    0.0000 C   0  0  0  0  0  0  0  0  0  0  0  0
    3.1042  -16.9042    0.0000 C   0  0  0  0  0  0  0  0  0  0  0  0
    4.5292  -17.7292    0.0000 O   0  0  0  0  0  0  0  0  0  0  0  0
    4.5292  -20.1917    0.0000 C   0  0  0  0  0  0  0  0  0  0  0  0
    4.5250  -21.8292    0.0000 C   0  0  0  0  0  0  0  0  0  0  0  0
    3.8167  -16.4917    0.0000 O   0  0  0  0  0  0  0  0  0  0  0  0
    5.2292  -20.6000    0.0000 C   0  0  0  0  0  0  0  0  0  0  0  0
    3.8125  -20.6042    0.0000 C   0  0  0  0  0  0  0  0  0  0  0  0
    3.8125  -21.4167    0.0000 C   0  0  0  0  0  0  0  0  0  0  0  0
    5.2375  -21.4167    0.0000 C   0  0  0  0  0  0  0  0  0  0  0  0
    4.5250  -22.6542    0.0000 O   0  0  0  0  0  0  0  0  0  0  0  0
    2.3792  -18.1500    0.0000 C   0  0  0  0  0  0  0  0  0  0  0  0
    2.3792  -16.4917    0.0000 C   0  0  0  0  0  0  0  0  0  0  0  0
    1.6750  -17.7375    0.0000 C   0  0  0  0  0  0  0  0  0  0  0  0
    1.6750  -16.9125    0.0000 C   0  0  0  0  0  0  0  0  0  0  0  0
  2  3  1  0
  3  1  1  0
  4  2  2  0
  5  1  2  0
  6  3  2  0
  7  4  1  0
  8 12  2  0
  9  5  1  0
 10  7  1  0
 11  7  2  0
 12 11  1  0
 13 10  2  0
 14  8  1  0
 15  1  1  0
 16  5  1  0
 17 15  2  0
 18 17  1  0
 18 16  2  0
  8 13  1  0
M  END
>  <ID>  (1943) 


>  <MOLENAME>  (1943) 
2'.4-DIHYDROXYCHALCONE

>  <therap>  (1943) 
nan

>  <ref>  (1943) 
JACS 68:697 (1946)

>  <cas#>  (1943) 
13323-66-5

>  <source>  (1943) 
Adhatoda vasica (as glucoside)

>  <status>  (1943) 
undetermined activity

>  <tradename>  (1943) 
nan

>  <SMILES>  (1943) 
O=C(/C=C/c1ccc(O)cc1)c1c(O)cccc1

>  <standardized_failed>  (1943) 
False

$$$$

     RDKit          2D

 30 34  0  0  0  0  0  0  0  0999 V2000
    5.2042   -2.3917    0.0000 C   0  0  0  0  0  0  0  0  0  0  0  0
    5.2042   -1.5792    0.0000 C   0  0  0  0  0  0  0  0  0  0  0  0
    5.9292   -2.8417    0.0000 C   0  0  0  0  0  0  0  0  0  0  0  0
    4.4917   -2.8417    0.0000 C   0  0  0  0  0  0  0  0  0  0  0  0
    4.4917   -1.1417    0.0000 C   0  0  0  0  0  0  0  0  0  0  0  0
    3.7667   -1.5792    0.0000 C   0  0  0  0  0  0  0  0  0  0  0  0
    6.6667   -2.3917    0.0000 C   0  0  0  0  0  0  0  0  0  0  0  0
    3.7667   -2.3917    0.0000 C   0  0  0  0  0  0  0  0  0  0  0  0
    5.9292   -1.1417    0.0000 O   0  0  0  0  0  0  0  0  0  0  0  0
    6.6792   -1.5667    0.0000 C   0  0  0  0  0  0  0  0  0  0  0  0
    4.4917   -0.2375    0.0000 C   0  0  0  0  0  0  0  0  0  0  0  0
    4.4917   -3.6542    0.0000 O   0  0  0  0  0  0  0  0  0  0  0  0
    3.0292   -1.1417    0.0000 O   0  0  0  0  0  0  0  0  0  0  0  0
    3.0542   -2.8417    0.0000 C   0  0  0  0  0  0  0  0  0  0  0  0
    3.7417    0.1208    0.0000 C   0  0  0  0  0  0  0  0  0  0  0  0
    7.3792   -2.8000    0.0000 C   0  0  0  0  0  0  0  0  0  0  0  0
    3.0292   -0.3250    0.0000 C   0  0  0  0  0  0  0  0  0  0  0  0
    3.7667   -4.1042    0.0000 C   0  0  0  0  0  0  0  0  0  0  0  0
    5.9292   -3.6542    0.0000 O   0  0  0  0  0  0  0  0  0  0  0  0
    7.3792   -3.6250    0.0000 C   0  0  0  0  0  0  0  0  0  0  0  0
    8.0875   -2.3792    0.0000 C   0  0  0  0  0  0  0  0  0  0  0  0
    3.0542   -3.6542    0.0000 C   0  0  0  0  0  0  0  0  0  0  0  0
    8.8125   -3.6167    0.0000 C   0  0  0  0  0  0  0  0  0  0  0  0
    8.8042   -2.7875    0.0000 C   0  0  0  0  0  0  0  0  0  0  0  0
    8.0917   -4.0292    0.0000 C   0  0  0  0  0  0  0  0  0  0  0  0
    9.5250   -4.0292    0.0000 O   0  0  0  0  0  0  0  0  0  0  0  0
    2.1875   -0.3250    0.0000 C   0  0  0  0  0  0  0  0  0  0  0  0
    3.0292    0.5333    0.0000 C   0  0  0  0  0  0  0  0  0  0  0  0
    3.0792   -4.5875    0.0000 C   0  0  0  0  0  0  0  0  0  0  0  0
    4.2667   -4.7750    0.0000 C   0  0  0  0  0  0  0  0  0  0  0  0
  2  1  2  0
  3  1  1  0
  4  1  1  0
  5  2  1  0
  6  8  1  0
  7  3  1  0
  8  4  2  0
  9  2  1  0
 10  7  2  0
 11  5  1  0
 12  4  1  0
 13  6  1  0
 14  8  1  0
 15 11  2  0
 16  7  1  0
 17 13  1  0
 18 12  1  0
 19  3  2  0
 20 16  2  0
 21 16  1  0
 22 18  1  0
 23 24  1  0
 24 21  2  0
 25 20  1  0
 26 23  1  0
 27 17  1  0
 28 17  1  0
 29 18  1  0
 30 18  1  0
  6  5  2  0
 10  9  1  0
 14 22  1  0
 17 15  1  0
 25 23  2  0
M  END
>  <ID>  (1944) 


>  <MOLENAME>  (1944) 
ISOOSAJIN

>  <therap>  (1944) 
nan

>  <ref>  (1944) 
J Am Chem Soc 61: 2832 (1939)

>  <cas#>  (1944) 
5745-54-0

>  <source>  (1944) 
Maclura pomifera

>  <status>  (1944) 
undetermined activity

>  <tradename>  (1944) 
nan

>  <SMILES>  (1944) 
CC1(C)C=Cc2c(O1)c1c(OC(C)(C)CC1)c1c2occ(-c2ccc(O)cc2)c1=O

>  <standardized_failed>  (1944) 
False

$$$$

     RDKit          2D

 36 42  0  0  0  0  0  0  0  0999 V2000
    6.5542   -3.3625    0.0000 C   0  0  0  0  0  0  0  0  0  0  0  0
    7.2625   -3.7542    0.0000 C   0  0  0  0  0  0  0  0  0  0  0  0
    5.8417   -3.7542    0.0000 C   0  0  0  0  0  0  0  0  0  0  0  0
    2.9750   -3.7542    0.0000 C   0  0  0  0  0  0  0  0  0  0  0  0
    6.5542   -2.5292    0.0000 C   0  0  0  0  0  0  0  0  0  0  0  0
    3.6917   -3.3625    0.0000 C   0  0  0  0  0  0  0  0  0  0  0  0
    4.3917   -3.7542    0.0000 C   0  0  0  0  0  0  0  0  0  0  0  0
    6.5792   -4.1250    0.0000 O   0  0  0  0  0  0  0  0  0  0  0  0
    3.1875   -2.9542    0.0000 O   0  0  0  0  0  0  0  0  0  0  0  0
    5.1125   -3.3625    0.0000 C   0  0  0  0  0  0  0  0  0  0  0  0
    4.3917   -4.5792    0.0000 C   0  0  0  0  0  0  0  0  0  0  0  0
    7.9667   -3.3625    0.0000 C   0  0  0  0  0  0  0  0  0  0  0  0
    2.9750   -4.5792    0.0000 C   0  0  0  0  0  0  0  0  0  0  0  0
    7.2625   -2.1042    0.0000 C   0  0  0  0  0  0  0  0  0  0  0  0
    3.6917   -5.0125    0.0000 C   0  0  0  0  0  0  0  0  0  0  0  0
    7.9667   -2.5292    0.0000 O   0  0  0  0  0  0  0  0  0  0  0  0
    5.8417   -4.5625    0.0000 C   0  0  0  0  0  0  0  0  0  0  0  0
    5.1417   -4.9667    0.0000 C   0  0  0  0  0  0  0  0  0  0  0  0
    7.2542   -1.2792    0.0000 C   0  0  0  0  0  0  0  0  0  0  0  0
    5.8417   -2.1042    0.0000 C   0  0  0  0  0  0  0  0  0  0  0  0
    5.1125   -2.5292    0.0000 C   0  0  0  0  0  0  0  0  0  0  0  0
    6.5417   -4.9750    0.0000 O   0  0  0  0  0  0  0  0  0  0  0  0
    6.5417   -5.7667    0.0000 C   0  0  0  0  0  0  0  0  0  0  0  0
    8.6875   -3.7792    0.0000 O   0  0  0  0  0  0  0  0  0  0  0  0
    7.8125   -0.6792    0.0000 C   0  0  0  0  0  0  0  0  0  0  0  0
    2.2542   -5.0000    0.0000 O   0  0  0  0  0  0  0  0  0  0  0  0
    6.5250   -0.9042    0.0000 C   0  0  0  0  0  0  0  0  0  0  0  0
    7.4375    0.0458    0.0000 O   0  0  0  0  0  0  0  0  0  0  0  0
    6.6250   -0.1167    0.0000 C   0  0  0  0  0  0  0  0  0  0  0  0
    7.2417   -6.1875    0.0000 O   0  0  0  0  0  0  0  0  0  0  0  0
    5.8417   -2.7667    0.0000 C   0  0  0  0  0  0  0  0  0  0  0  0
    6.5542   -1.6917    0.0000 C   0  0  0  0  0  0  0  0  0  0  0  0
    4.3917   -2.8250    0.0000 C   0  0  0  0  0  0  0  0  0  0  0  0
    2.9750   -5.4417    0.0000 C   0  0  0  0  0  0  0  0  0  0  0  0
    4.3917   -5.4417    0.0000 C   0  0  0  0  0  0  0  0  0  0  0  0
    5.7917   -6.2167    0.0000 C   0  0  0  0  0  0  0  0  0  0  0  0
  2  1  1  0
  3  1  1  0
  4  6  1  0
  5  1  1  0
  6  7  1  0
  7 10  1  0
  8  1  1  0
  9  6  1  0
 10  3  1  0
 11 18  1  0
 12  2  1  0
 13 15  1  0
 14  5  1  0
 15 11  1  0
 14 16  1  6
 17  3  1  0
 18 17  1  0
 14 19  1  0
 20  5  1  0
 21 20  1  0
 17 22  1  6
 23 22  1  0
 24 12  2  0
 25 19  2  0
 26 13  2  0
 27 19  1  0
 28 25  1  0
 29 27  2  0
 30 23  2  0
  3 31  1  1
  5 32  1  6
  7 33  1  1
 34 15  1  0
 35 15  1  0
 36 23  1  0
  8  2  1  0
 10 21  1  0
 12 16  1  0
 11  7  1  0
 28 29  1  0
  9  4  1  0
 13  4  1  0
M  END
>  <ID>  (1945) 


>  <MOLENAME>  (1945) 
EPOXYGEDUNIN

>  <therap>  (1945) 
nan

>  <ref>  (1945) 
nan

>  <cas#>  (1945) 
nan

>  <source>  (1945) 
Meliaceae spp

>  <status>  (1945) 
undetermined activity

>  <tradename>  (1945) 
nan

>  <SMILES>  (1945) 
CC(=O)O[C@@H]1CC2C(C)(C)C(=O)C3OC3[C@]2(C)C2CC[C@@]3(C)[C@H](c4cocc4)OC(=O)C4OC43[C@@]21C

>  <standardized_failed>  (1945) 
False

$$$$

     RDKit          2D

 24 26  0  0  0  0  0  0  0  0999 V2000
    3.5042   -4.0417    0.0000 C   0  0  0  0  0  0  0  0  0  0  0  0
    4.3792   -4.5667    0.0000 C   0  0  0  0  0  0  0  0  0  0  0  0
    3.5042   -3.0542    0.0000 C   0  0  0  0  0  0  0  0  0  0  0  0
    5.2792   -4.0792    0.0000 C   0  0  0  0  0  0  0  0  0  0  0  0
    4.3792   -2.5167    0.0000 O   0  0  0  0  0  0  0  0  0  0  0  0
    2.6292   -4.5667    0.0000 C   0  0  0  0  0  0  0  0  0  0  0  0
    2.6292   -2.5167    0.0000 C   0  0  0  0  0  0  0  0  0  0  0  0
    8.8292   -4.1042    0.0000 C   0  0  0  0  0  0  0  0  0  0  0  0
    5.2792   -3.0167    0.0000 C   0  0  0  0  0  0  0  0  0  0  0  0
    6.1792   -4.6042    0.0000 C   0  0  0  0  0  0  0  0  0  0  0  0
    4.3792   -5.5667    0.0000 O   0  0  0  0  0  0  0  0  0  0  0  0
    8.8500   -3.0917    0.0000 C   0  0  0  0  0  0  0  0  0  0  0  0
    7.9500   -4.6042    0.0000 C   0  0  0  0  0  0  0  0  0  0  0  0
    7.0792   -4.1042    0.0000 C   0  0  0  0  0  0  0  0  0  0  0  0
    7.9500   -2.5917    0.0000 C   0  0  0  0  0  0  0  0  0  0  0  0
    1.7542   -3.0167    0.0000 C   0  0  0  0  0  0  0  0  0  0  0  0
    1.7542   -4.0792    0.0000 C   0  0  0  0  0  0  0  0  0  0  0  0
    7.0792   -3.1167    0.0000 C   0  0  0  0  0  0  0  0  0  0  0  0
    9.7000   -4.6792    0.0000 O   0  0  0  0  0  0  0  0  0  0  0  0
    9.7500   -2.5917    0.0000 O   0  0  0  0  0  0  0  0  0  0  0  0
    0.8542   -2.4792    0.0000 O   0  0  0  0  0  0  0  0  0  0  0  0
    9.6917   -5.7250    0.0000 C   0  0  0  0  0  0  0  0  0  0  0  0
   10.6417   -3.0917    0.0000 C   0  0  0  0  0  0  0  0  0  0  0  0
    0.8542   -1.4542    0.0000 C   0  0  0  0  0  0  0  0  0  0  0  0
  2  1  1  0
  3  1  2  0
  4  2  1  0
  5  3  1  0
  6  1  1  0
  7  3  1  0
  8 13  2  0
  9  5  1  0
 10  4  1  0
 11  2  2  0
 12 15  2  0
 13 14  1  0
 14 10  1  0
 15 18  1  0
 16 17  1  0
 17  6  2  0
 18 14  2  0
 19  8  1  0
 20 12  1  0
 21 16  1  0
 22 19  1  0
 23 20  1  0
 24 21  1  0
 16  7  2  0
  4  9  1  0
  8 12  1  0
M  END
>  <ID>  (1946) 


>  <MOLENAME>  (1946) 
DEOXYSAPPANONE B TRIMETHYL ETHER

>  <therap>  (1946) 
nan

>  <ref>  (1946) 
Chem Pharm Bull 34: 2506 (1986); 35: 3597 (1987)

>  <cas#>  (1946) 
nan

>  <source>  (1946) 
Caesalpinia sappan

>  <status>  (1946) 
undetermined activity

>  <tradename>  (1946) 
nan

>  <SMILES>  (1946) 
COc1cc2c(cc1)C(=O)C(Cc1ccc(OC)c(OC)c1)CO2

>  <standardized_failed>  (1946) 
False

$$$$

     RDKit          2D

 26 28  0  0  0  0  0  0  0  0999 V2000
    2.1167   -0.2000    0.0000 C   0  0  0  0  0  0  0  0  0  0  0  0
    1.2667   -0.6667    0.0000 C   0  0  0  0  0  0  0  0  0  0  0  0
    2.1167    0.8125    0.0000 C   0  0  0  0  0  0  0  0  0  0  0  0
    0.4042   -0.2000    0.0000 C   0  0  0  0  0  0  0  0  0  0  0  0
    1.2667    1.3125    0.0000 O   0  0  0  0  0  0  0  0  0  0  0  0
   -3.0208   -0.2000    0.0000 C   0  0  0  0  0  0  0  0  0  0  0  0
   -3.8833   -0.7000    0.0000 O   0  0  0  0  0  0  0  0  0  0  0  0
    2.9792   -0.6667    0.0000 C   0  0  0  0  0  0  0  0  0  0  0  0
    2.9792    1.3125    0.0000 C   0  0  0  0  0  0  0  0  0  0  0  0
   -3.8833   -1.6875    0.0000 C   0  0  0  0  0  0  0  0  0  0  0  0
    0.4042    0.8125    0.0000 C   0  0  0  0  0  0  0  0  0  0  0  0
   -0.4500   -0.7000    0.0000 C   0  0  0  0  0  0  0  0  0  0  0  0
   -3.0208    0.8125    0.0000 C   0  0  0  0  0  0  0  0  0  0  0  0
   -2.1625   -0.7000    0.0000 C   0  0  0  0  0  0  0  0  0  0  0  0
    1.2667   -1.6667    0.0000 O   0  0  0  0  0  0  0  0  0  0  0  0
   -1.3125   -0.2000    0.0000 C   0  0  0  0  0  0  0  0  0  0  0  0
   -4.7208   -2.1875    0.0000 O   0  0  0  0  0  0  0  0  0  0  0  0
   -2.1625    1.2833    0.0000 C   0  0  0  0  0  0  0  0  0  0  0  0
    3.8542    0.8125    0.0000 C   0  0  0  0  0  0  0  0  0  0  0  0
    3.8542   -0.2000    0.0000 C   0  0  0  0  0  0  0  0  0  0  0  0
   -1.3125    0.8125    0.0000 C   0  0  0  0  0  0  0  0  0  0  0  0
   -3.8833    1.3125    0.0000 O   0  0  0  0  0  0  0  0  0  0  0  0
    4.7167    1.3125    0.0000 O   0  0  0  0  0  0  0  0  0  0  0  0
   -3.0000   -2.1542    0.0000 C   0  0  0  0  0  0  0  0  0  0  0  0
   -4.7458    0.8125    0.0000 C   0  0  0  0  0  0  0  0  0  0  0  0
    4.7167    2.3125    0.0000 C   0  0  0  0  0  0  0  0  0  0  0  0
  2  1  1  0
  3  1  2  0
  4  2  1  0
  5  3  1  0
  6 14  2  0
  7  6  1  0
  8  1  1  0
  9  3  1  0
 10  7  1  0
 11  5  1  0
 12  4  1  0
 13 18  2  0
 14 16  1  0
 15  2  2  0
 16 12  1  0
 17 10  2  0
 18 21  1  0
 19 20  1  0
 20  8  2  0
 21 16  2  0
 22 13  1  0
 23 19  1  0
 24 10  1  0
 25 22  1  0
 26 23  1  0
  9 19  2  0
  4 11  1  0
  6 13  1  0
M  END
>  <ID>  (1947) 


>  <MOLENAME>  (1947) 
DEOXYSAPPANONE B 7.3'-DIMETHYL ETHER ACETATE

>  <therap>  (1947) 
nan

>  <ref>  (1947) 
Chem Pharm Bull 34: 2506 (1986); 35: 3597 (1987)

>  <cas#>  (1947) 
nan

>  <source>  (1947) 
derivative Caesalpinia sappan

>  <status>  (1947) 
undetermined activity

>  <tradename>  (1947) 
nan

>  <SMILES>  (1947) 
COc1cc2c(cc1)C(=O)C(Cc1ccc(OC)c(OC(C)=O)c1)CO2

>  <standardized_failed>  (1947) 
False

$$$$

     RDKit          2D

 26 28  0  0  0  0  0  0  0  0999 V2000
    5.0667   -2.6542    0.0000 C   0  0  0  0  0  0  0  0  0  0  0  0
    7.0292   -4.5375    0.0000 C   0  0  0  0  0  0  0  0  0  0  0  0
    7.6792   -4.9125    0.0000 C   0  0  0  0  0  0  0  0  0  0  0  0
    5.7250   -2.2792    0.0000 O   0  0  0  0  0  0  0  0  0  0  0  0
    4.4167   -2.2792    0.0000 C   0  0  0  0  0  0  0  0  0  0  0  0
    7.0292   -3.7875    0.0000 C   0  0  0  0  0  0  0  0  0  0  0  0
    5.0667   -3.4125    0.0000 C   0  0  0  0  0  0  0  0  0  0  0  0
    6.3792   -3.4125    0.0000 C   0  0  0  0  0  0  0  0  0  0  0  0
    5.7250   -3.7875    0.0000 C   0  0  0  0  0  0  0  0  0  0  0  0
    7.6792   -3.4125    0.0000 C   0  0  0  0  0  0  0  0  0  0  0  0
    6.3792   -2.6542    0.0000 C   0  0  0  0  0  0  0  0  0  0  0  0
    8.3250   -4.5375    0.0000 C   0  0  0  0  0  0  0  0  0  0  0  0
    3.7667   -2.6542    0.0000 C   0  0  0  0  0  0  0  0  0  0  0  0
    4.4167   -3.7875    0.0000 C   0  0  0  0  0  0  0  0  0  0  0  0
    8.3250   -3.7875    0.0000 C   0  0  0  0  0  0  0  0  0  0  0  0
    3.7667   -3.4125    0.0000 C   0  0  0  0  0  0  0  0  0  0  0  0
    7.6792   -5.6625    0.0000 O   0  0  0  0  0  0  0  0  0  0  0  0
    4.4167   -1.5292    0.0000 O   0  0  0  0  0  0  0  0  0  0  0  0
    6.3792   -4.9125    0.0000 O   0  0  0  0  0  0  0  0  0  0  0  0
    3.1167   -2.2792    0.0000 O   0  0  0  0  0  0  0  0  0  0  0  0
    8.9750   -4.9125    0.0000 O   0  0  0  0  0  0  0  0  0  0  0  0
    5.0667   -1.1417    0.0000 C   0  0  0  0  0  0  0  0  0  0  0  0
    8.3250   -6.0375    0.0000 C   0  0  0  0  0  0  0  0  0  0  0  0
    5.7292   -4.5375    0.0000 C   0  0  0  0  0  0  0  0  0  0  0  0
    2.4667   -2.6542    0.0000 C   0  0  0  0  0  0  0  0  0  0  0  0
    8.9750   -5.6625    0.0000 C   0  0  0  0  0  0  0  0  0  0  0  0
  2  6  2  0
  3  2  1  0
  4  1  1  0
  5  1  1  0
  8  6  1  0
  7  1  2  0
  8  9  1  1
  9  7  1  0
 10  6  1  0
 11  4  1  0
 12 15  1  0
 13  5  2  0
 14  7  1  0
 15 10  2  0
 16 14  2  0
 17  3  1  0
 18  5  1  0
 19  2  1  0
 20 13  1  0
 21 12  1  0
 22 18  1  0
 23 17  1  0
 24 19  1  0
 25 20  1  0
 26 21  1  0
  8 11  1  0
 16 13  1  0
 12  3  2  0
M  END
>  <ID>  (1948) 


>  <MOLENAME>  (1948) 
DUARTIN. DIMETHYL ETHER

>  <therap>  (1948) 
nan

>  <ref>  (1948) 
nan

>  <cas#>  (1948) 
nan

>  <source>  (1948) 
derivative of DUARTIN (00201177)

>  <status>  (1948) 
undetermined activity

>  <tradename>  (1948) 
nan

>  <SMILES>  (1948) 
COc1c(OC)c2c(cc1)C[C@H](c1c(OC)c(OC)c(OC)cc1)CO2

>  <standardized_failed>  (1948) 
False

$$$$

     RDKit          2D

 21 22  0  0  0  0  0  0  0  0999 V2000
    2.3292   -3.1417    0.0000 C   0  0  0  0  0  0  0  0  0  0  0  0
    1.6750   -3.5167    0.0000 C   0  0  0  0  0  0  0  0  0  0  0  0
    2.3292   -2.3875    0.0000 C   0  0  0  0  0  0  0  0  0  0  0  0
    1.6750   -2.0042    0.0000 C   0  0  0  0  0  0  0  0  0  0  0  0
    1.0292   -2.3875    0.0000 C   0  0  0  0  0  0  0  0  0  0  0  0
    1.0292   -3.1417    0.0000 C   0  0  0  0  0  0  0  0  0  0  0  0
    2.9792   -3.5167    0.0000 C   0  0  0  0  0  0  0  0  0  0  0  0
    3.6292   -3.1417    0.0000 C   0  0  0  0  0  0  0  0  0  0  0  0
    2.9792   -2.0125    0.0000 O   0  0  0  0  0  0  0  0  0  0  0  0
    2.9792   -4.2667    0.0000 C   0  0  0  0  0  0  0  0  0  0  0  0
    0.3792   -3.5167    0.0000 O   0  0  0  0  0  0  0  0  0  0  0  0
    3.6292   -2.3917    0.0000 C   0  0  0  0  0  0  0  0  0  0  0  0
    4.2792   -3.5167    0.0000 C   0  0  0  0  0  0  0  0  0  0  0  0
    3.6292   -4.6417    0.0000 C   0  0  0  0  0  0  0  0  0  0  0  0
    0.3750   -2.0125    0.0000 O   0  0  0  0  0  0  0  0  0  0  0  0
    4.9292   -2.3917    0.0000 C   0  0  0  0  0  0  0  0  0  0  0  0
    4.9292   -3.1417    0.0000 C   0  0  0  0  0  0  0  0  0  0  0  0
    4.2792   -2.0167    0.0000 C   0  0  0  0  0  0  0  0  0  0  0  0
    5.5792   -2.0167    0.0000 O   0  0  0  0  0  0  0  0  0  0  0  0
    0.3750   -1.2625    0.0000 C   0  0  0  0  0  0  0  0  0  0  0  0
    6.2292   -2.3917    0.0000 C   0  0  0  0  0  0  0  0  0  0  0  0
  2  1  2  0
  3  1  1  0
  4  3  1  0
  5  4  2  0
  6  2  1  0
  7  1  1  0
  8  7  1  0
  9  3  2  0
 10  7  1  0
 11  6  2  0
 12  8  2  0
 13  8  1  0
 14 10  2  0
 15  5  1  0
 16 17  1  0
 17 13  2  0
 18 12  1  0
 19 16  1  0
 20 15  1  0
 21 19  1  0
  5  6  1  0
 16 18  2  0
M  END
>  <ID>  (1949) 


>  <MOLENAME>  (1949) 
4.4'-DIMETHOXYDALBERGIONE

>  <therap>  (1949) 
nan

>  <ref>  (1949) 
Tetrahedron 21: 2683 (1965)

>  <cas#>  (1949) 
nan

>  <source>  (1949) 
Dalbergia nigra

>  <status>  (1949) 
undetermined activity

>  <tradename>  (1949) 
nan

>  <SMILES>  (1949) 
C=CC(C1=CC(=O)C(OC)=CC1=O)c1ccc(OC)cc1

>  <standardized_failed>  (1949) 
False

$$$$

     RDKit          2D

 38 41  0  0  0  0  0  0  0  0999 V2000
    4.6125   -2.2500    0.0000 C   0  0  0  0  0  0  0  0  0  0  0  0
    4.9000   -3.1167    0.0000 C   0  0  0  0  0  0  0  0  0  0  0  0
    6.1500   -2.2500    0.0000 C   0  0  0  0  0  0  0  0  0  0  0  0
    3.6917   -2.0167    0.0000 C   0  0  0  0  0  0  0  0  0  0  0  0
    5.8292   -3.1167    0.0000 C   0  0  0  0  0  0  0  0  0  0  0  0
    6.4750   -3.8542    0.0000 C   0  0  0  0  0  0  0  0  0  0  0  0
    3.0417   -2.7250    0.0000 C   0  0  0  0  0  0  0  0  0  0  0  0
    7.4000   -3.6375    0.0000 C   0  0  0  0  0  0  0  0  0  0  0  0
    8.0292   -4.3167    0.0000 C   0  0  0  0  0  0  0  0  0  0  0  0
    3.3417   -3.6375    0.0000 C   0  0  0  0  0  0  0  0  0  0  0  0
    5.3625   -1.6750    0.0000 C   0  0  0  0  0  0  0  0  0  0  0  0
    7.6917   -2.7542    0.0000 O   0  0  0  0  0  0  0  0  0  0  0  0
    4.2750   -3.8167    0.0000 C   0  0  0  0  0  0  0  0  0  0  0  0
    7.7500   -5.2667    0.0000 C   0  0  0  0  0  0  0  0  0  0  0  0
    3.4167   -1.1125    0.0000 O   0  0  0  0  0  0  0  0  0  0  0  0
    2.0917   -2.5042    0.0000 O   0  0  0  0  0  0  0  0  0  0  0  0
    9.0417   -4.0667    0.0000 O   0  0  0  0  0  0  0  0  0  0  0  0
    6.1917   -4.7667    0.0000 C   0  0  0  0  0  0  0  0  0  0  0  0
    7.0792   -2.0667    0.0000 C   0  0  0  0  0  0  0  0  0  0  0  0
    2.6917   -4.3750    0.0000 O   0  0  0  0  0  0  0  0  0  0  0  0
    8.4417   -5.9875    0.0000 O   0  0  0  0  0  0  0  0  0  0  0  0
    4.0667   -0.4250    0.0000 C   0  0  0  0  0  0  0  0  0  0  0  0
    9.6917   -4.7667    0.0000 C   0  0  0  0  0  0  0  0  0  0  0  0
    1.7750   -1.6250    0.0000 C   0  0  0  0  0  0  0  0  0  0  0  0
    3.0250   -5.2500    0.0000 C   0  0  0  0  0  0  0  0  0  0  0  0
    8.1500   -6.9167    0.0000 C   0  0  0  0  0  0  0  0  0  0  0  0
    6.8417   -5.4875    0.0000 C   0  0  0  0  0  0  0  0  0  0  0  0
    3.8000    0.4833    0.0000 O   0  0  0  0  0  0  0  0  0  0  0  0
    2.3792   -0.9042    0.0000 O   0  0  0  0  0  0  0  0  0  0  0  0
    2.4292   -5.9667    0.0000 O   0  0  0  0  0  0  0  0  0  0  0  0
   10.6167   -4.5542    0.0000 O   0  0  0  0  0  0  0  0  0  0  0  0
    7.1917   -7.1292    0.0000 O   0  0  0  0  0  0  0  0  0  0  0  0
    6.4792   -1.3542    0.0000 O   0  0  0  0  0  0  0  0  0  0  0  0
    3.9417   -5.4000    0.0000 C   0  0  0  0  0  0  0  0  0  0  0  0
    9.4167   -5.6792    0.0000 C   0  0  0  0  0  0  0  0  0  0  0  0
    0.8417   -1.4542    0.0000 C   0  0  0  0  0  0  0  0  0  0  0  0
    4.9875   -0.6417    0.0000 C   0  0  0  0  0  0  0  0  0  0  0  0
    8.8042   -7.6417    0.0000 C   0  0  0  0  0  0  0  0  0  0  0  0
  2  1  1  0
  3 11  1  0
  4  1  2  0
  5  2  1  0
  6  5  1  0
  7  4  1  0
  8  6  2  0
  9  8  1  0
 10  7  2  0
 11  1  1  0
 12 19  1  0
 13  2  2  0
 14 27  1  0
 15  4  1  0
 16  7  1  0
 17  9  1  0
 18  6  1  0
 19  3  1  0
 20 10  1  0
 21 14  1  0
 22 15  1  0
 23 17  1  0
 24 16  1  0
 25 20  1  0
 26 21  1  0
 27 18  2  0
 28 22  2  0
 29 24  2  0
 30 25  2  0
 31 23  2  0
 32 26  2  0
 33  3  1  0
 34 25  1  0
 35 23  1  0
 36 24  1  0
 37 22  1  0
 38 26  1  0
 13 10  1  0
  3  5  1  0
 12  8  1  0
 14  9  2  0
M  END
>  <ID>  (1950) 


>  <MOLENAME>  (1950) 
HAEMATOXYLIN PENTAACETATE

>  <therap>  (1950) 
nan

>  <ref>  (1950) 
Bul Soc Chim Fr 1972: 3292

>  <cas#>  (1950) 
nan

>  <source>  (1950) 
derivative

>  <status>  (1950) 
undetermined activity

>  <tradename>  (1950) 
nan

>  <SMILES>  (1950) 
CC(=O)Oc1c(OC(C)=O)c2c(cc1)C1c3cc(OC(C)=O)c(OC(C)=O)c(OC(C)=O)c3CC1(O)CO2

>  <standardized_failed>  (1950) 
False

$$$$

     RDKit          2D

 34 38  0  0  0  0  0  0  0  0999 V2000
    8.0000   -4.1167    0.0000 C   0  0  0  0  0  0  0  0  0  0  0  0
    8.0000   -3.0667    0.0000 C   0  0  0  0  0  0  0  0  0  0  0  0
    7.1250   -4.6417    0.0000 C   0  0  0  0  0  0  0  0  0  0  0  0
    5.3125   -4.6417    0.0000 C   0  0  0  0  0  0  0  0  0  0  0  0
    6.2000   -4.1167    0.0000 C   0  0  0  0  0  0  0  0  0  0  0  0
    5.3125   -5.6917    0.0000 C   0  0  0  0  0  0  0  0  0  0  0  0
    8.9125   -2.5667    0.0000 C   0  0  0  0  0  0  0  0  0  0  0  0
    4.4292   -6.1917    0.0000 C   0  0  0  0  0  0  0  0  0  0  0  0
    7.1250   -2.5667    0.0000 C   0  0  0  0  0  0  0  0  0  0  0  0
    9.8125   -3.0667    0.0000 C   0  0  0  0  0  0  0  0  0  0  0  0
    3.5292   -5.6917    0.0000 C   0  0  0  0  0  0  0  0  0  0  0  0
    7.1250   -5.6542    0.0000 C   0  0  0  0  0  0  0  0  0  0  0  0
    6.2000   -3.1042    0.0000 C   0  0  0  0  0  0  0  0  0  0  0  0
    8.9125   -4.6417    0.0000 C   0  0  0  0  0  0  0  0  0  0  0  0
    4.4125   -4.1417    0.0000 C   0  0  0  0  0  0  0  0  0  0  0  0
    6.2250   -6.1917    0.0000 C   0  0  0  0  0  0  0  0  0  0  0  0
    2.6250   -6.2292    0.0000 O   0  0  0  0  0  0  0  0  0  0  0  0
    1.7417   -5.7417    0.0000 C   0  0  0  0  0  0  0  0  0  0  0  0
    8.8917   -1.5292    0.0000 C   0  0  0  0  0  0  0  0  0  0  0  0
    9.8125   -4.1167    0.0000 C   0  0  0  0  0  0  0  0  0  0  0  0
    9.7917   -1.0167    0.0000 C   0  0  0  0  0  0  0  0  0  0  0  0
    3.5000   -4.6417    0.0000 C   0  0  0  0  0  0  0  0  0  0  0  0
   10.6917   -2.5667    0.0000 C   0  0  0  0  0  0  0  0  0  0  0  0
    0.8375   -6.1917    0.0000 O   0  0  0  0  0  0  0  0  0  0  0  0
   10.6917   -1.5292    0.0000 C   0  0  0  0  0  0  0  0  0  0  0  0
    8.0125   -5.0917    0.0000 C   0  0  0  0  0  0  0  0  0  0  0  0
    7.1375   -3.6792    0.0000 C   0  0  0  0  0  0  0  0  0  0  0  0
    5.3000   -3.6917    0.0000 C   0  0  0  0  0  0  0  0  0  0  0  0
    3.6125   -6.6792    0.0000 C   0  0  0  0  0  0  0  0  0  0  0  0
    5.4000   -6.7292    0.0000 C   0  0  0  0  0  0  0  0  0  0  0  0
   10.7000   -3.6292    0.0000 C   0  0  0  0  0  0  0  0  0  0  0  0
    1.7250   -4.6917    0.0000 C   0  0  0  0  0  0  0  0  0  0  0  0
   10.6417   -0.4792    0.0000 C   0  0  0  0  0  0  0  0  0  0  0  0
    8.8417   -0.5792    0.0000 C   0  0  0  0  0  0  0  0  0  0  0  0
  2  1  1  0
  3  1  1  0
  4  5  1  0
  5  3  1  0
  6 16  1  0
  7  2  1  0
  8  6  1  0
  9  2  2  0
 10 20  1  0
 11  8  1  0
 12  3  1  0
 13  5  1  0
 14  1  1  0
 15  4  1  0
 16 12  1  0
 11 17  1  1
 18 17  1  0
 19  7  1  0
 20 14  1  0
 21 19  1  0
 22 15  1  0
 23 10  1  0
 24 18  2  0
 25 23  1  0
  1 26  1  6
  3 27  1  1
  4 28  1  1
 29  8  1  0
 30  8  1  0
 10 31  1  1
 32 18  1  0
 33 21  1  0
 34 21  1  0
  7 10  1  0
 13  9  1  0
  6  4  1  0
 21 25  1  0
 11 22  1  0
M  END
>  <ID>  (1951) 


>  <MOLENAME>  (1951) 
beta-AMYRIN ACETATE

>  <therap>  (1951) 
nan

>  <ref>  (1951) 
J Chem Soc 1952:2916; Phytocehmistry 9: 1669 (1970)

>  <cas#>  (1951) 
1616-93-9

>  <source>  (1951) 
latof various species of rubber tree

>  <status>  (1951) 
undetermined activity

>  <tradename>  (1951) 
nan

>  <SMILES>  (1951) 
CC(=O)O[C@H]1CC[C@@]2(C)C(CC[C@]3(C)C2CC=C2C4CC(C)(C)CC[C@]4(C)CC[C@]23C)C1(C)C

>  <standardized_failed>  (1951) 
False

$$$$

     RDKit          2D

 34 36  0  0  0  0  0  0  0  0999 V2000
    7.6292   -2.8667    0.0000 C   0  0  0  0  0  0  0  0  0  0  0  0
    8.3417   -3.2917    0.0000 O   0  0  0  0  0  0  0  0  0  0  0  0
    7.6292   -2.0417    0.0000 C   0  0  0  0  0  0  0  0  0  0  0  0
    6.2042   -2.8542    0.0000 C   0  0  0  0  0  0  0  0  0  0  0  0
    5.4917   -1.6292    0.0000 C   0  0  0  0  0  0  0  0  0  0  0  0
    9.0542   -2.8792    0.0000 C   0  0  0  0  0  0  0  0  0  0  0  0
    8.3542   -1.6417    0.0000 C   0  0  0  0  0  0  0  0  0  0  0  0
    6.2042   -2.0292    0.0000 C   0  0  0  0  0  0  0  0  0  0  0  0
    9.0667   -2.0542    0.0000 C   0  0  0  0  0  0  0  0  0  0  0  0
    4.0667   -0.7917    0.0000 C   0  0  0  0  0  0  0  0  0  0  0  0
    4.7792   -0.3917    0.0000 C   0  0  0  0  0  0  0  0  0  0  0  0
    6.9167   -3.2792    0.0000 O   0  0  0  0  0  0  0  0  0  0  0  0
    3.3625   -0.3917    0.0000 C   0  0  0  0  0  0  0  0  0  0  0  0
    5.5000   -0.8042    0.0000 O   0  0  0  0  0  0  0  0  0  0  0  0
    3.3625    0.4333    0.0000 C   0  0  0  0  0  0  0  0  0  0  0  0
    5.4875   -3.2667    0.0000 C   0  0  0  0  0  0  0  0  0  0  0  0
    4.7792   -2.0292    0.0000 C   0  0  0  0  0  0  0  0  0  0  0  0
    4.7792    0.4333    0.0000 O   0  0  0  0  0  0  0  0  0  0  0  0
    4.7750   -2.8542    0.0000 C   0  0  0  0  0  0  0  0  0  0  0  0
    4.0667    0.8583    0.0000 C   0  0  0  0  0  0  0  0  0  0  0  0
    6.9167   -1.7542    0.0000 N   0  0  0  0  0  0  0  0  0  0  0  0
    9.7667   -3.3042    0.0000 C   0  0  0  0  0  0  0  0  0  0  0  0
    2.6417   -0.8042    0.0000 N   0  0  0  0  0  0  0  0  0  0  0  0
    4.5792   -1.4667    0.0000 O   0  0  0  0  0  0  0  0  0  0  0  0
    8.3625   -0.8167    0.0000 O   0  0  0  0  0  0  0  0  0  0  0  0
    6.3875   -1.1292    0.0000 O   0  0  0  0  0  0  0  0  0  0  0  0
    9.7792   -1.6542    0.0000 O   0  0  0  0  0  0  0  0  0  0  0  0
    5.4792   -4.0917    0.0000 N   0  0  0  0  0  0  0  0  0  0  0  0
    3.8625   -2.0292    0.0000 N   0  0  0  0  0  0  0  0  0  0  0  0
    3.1417    1.2333    0.0000 O   0  0  0  0  0  0  0  0  0  0  0  0
    9.7625   -4.1292    0.0000 O   0  0  0  0  0  0  0  0  0  0  0  0
    2.6417    0.0333    0.0000 C   0  0  0  0  0  0  0  0  0  0  0  0
    1.9292   -0.3917    0.0000 C   0  0  0  0  0  0  0  0  0  0  0  0
   10.4875   -2.8917    0.0000 C   0  0  0  0  0  0  0  0  0  0  0  0
  2  1  1  0
  3  1  1  0
  4 12  1  1
  5  8  1  0
  6  2  1  0
  7  3  1  0
  8  4  1  0
  9  7  1  0
 10 11  1  0
 11 14  1  0
  1 12  1  6
 13 10  1  0
 14  5  1  0
 15 20  1  0
 16  4  1  0
 17 19  1  0
 18 11  1  0
 19 16  1  0
 20 18  1  0
  3 21  1  6
  6 22  1  1
 13 23  1  1
 10 24  1  6
  7 25  1  1
  8 26  1  6
  9 27  1  6
 16 28  1  6
 17 29  1  6
 15 30  1  0
 31 22  1  0
 15 32  1  6
 33 23  1  0
 34 22  1  0
  9  6  1  0
  5 17  1  0
 13 15  1  0
M  END
>  <ID>  (1952) 


>  <MOLENAME>  (1952) 
GENETICIN

>  <therap>  (1952) 
antibacterial

>  <ref>  (1952) 
Antimicrob Agents Chemother 6:144 (1974); J Antibiotics 28:573 (1975); 30:945 (1977); 35:1 (1982)

>  <cas#>  (1952) 
49863-47-0, 108321-42-2(sulfate)

>  <source>  (1952) 
Micromonospora spp; G-418

>  <status>  (1952) 
experimental

>  <tradename>  (1952) 
nan

>  <SMILES>  (1952) 
CN[C@@H]1[C@@H](O)C(OC2[C@@H](N)C[C@@H](N)[C@H](O[C@H]3O[C@H](C(C)O)[C@@H](O)[C@H](O)[C@H]3N)[C@H]2O)OC[C@]1(C)O

>  <standardized_failed>  (1952) 
False

$$$$

     RDKit          2D

 46 45  0  0  0  0  0  0  0  0999 V2000
   -1.6333   -0.6792    0.0000 C   0  0  0  0  0  0  0  0  0  0  0  0
    1.2167   -0.6792    0.0000 C   0  0  0  0  0  0  0  0  0  0  0  0
   -1.6333   -3.1417    0.0000 C   0  0  0  0  0  0  0  0  0  0  0  0
    0.5042   -4.3667    0.0000 C   0  0  0  0  0  0  0  0  0  0  0  0
    3.3542   -4.3625    0.0000 C   0  0  0  0  0  0  0  0  0  0  0  0
    6.2042   -4.3542    0.0000 C   0  0  0  0  0  0  0  0  0  0  0  0
    9.0542   -4.3417    0.0000 C   0  0  0  0  0  0  0  0  0  0  0  0
   11.9042   -4.3375    0.0000 C   0  0  0  0  0  0  0  0  0  0  0  0
    4.0667   -0.6792    0.0000 C   0  0  0  0  0  0  0  0  0  0  0  0
   11.1917   -4.7500    0.0000 C   0  0  0  0  0  0  0  0  0  0  0  0
   -1.6333   -2.3167    0.0000 C   0  0  0  0  0  0  0  0  0  0  0  0
    5.4917   -4.7667    0.0000 C   0  0  0  0  0  0  0  0  0  0  0  0
    1.9292   -1.0917    0.0000 C   0  0  0  0  0  0  0  0  0  0  0  0
    8.3417   -4.7542    0.0000 C   0  0  0  0  0  0  0  0  0  0  0  0
   -0.2083   -4.7792    0.0000 C   0  0  0  0  0  0  0  0  0  0  0  0
   -0.9208   -1.0917    0.0000 C   0  0  0  0  0  0  0  0  0  0  0  0
    2.6417   -4.7750    0.0000 C   0  0  0  0  0  0  0  0  0  0  0  0
    4.7792   -1.0917    0.0000 C   0  0  0  0  0  0  0  0  0  0  0  0
   -2.3458   -1.9125    0.0000 C   0  0  0  0  0  0  0  0  0  0  0  0
   -0.2083   -0.6792    0.0000 C   0  0  0  0  0  0  0  0  0  0  0  0
    7.6292   -4.3500    0.0000 C   0  0  0  0  0  0  0  0  0  0  0  0
    1.9292   -4.3667    0.0000 C   0  0  0  0  0  0  0  0  0  0  0  0
    2.6417   -0.6792    0.0000 C   0  0  0  0  0  0  0  0  0  0  0  0
   10.4792   -4.3417    0.0000 C   0  0  0  0  0  0  0  0  0  0  0  0
   -0.9208   -4.3667    0.0000 C   0  0  0  0  0  0  0  0  0  0  0  0
    4.7792   -4.3542    0.0000 C   0  0  0  0  0  0  0  0  0  0  0  0
    6.2042   -1.0875    0.0000 O   0  0  0  0  0  0  0  0  0  0  0  0
    3.3542   -1.0917    0.0000 C   0  0  0  0  0  0  0  0  0  0  0  0
    0.5042   -1.0917    0.0000 C   0  0  0  0  0  0  0  0  0  0  0  0
    4.0667   -4.7667    0.0000 C   0  0  0  0  0  0  0  0  0  0  0  0
   -2.3458   -1.0917    0.0000 C   0  0  0  0  0  0  0  0  0  0  0  0
    9.7667   -4.7542    0.0000 C   0  0  0  0  0  0  0  0  0  0  0  0
    1.2167   -4.7792    0.0000 C   0  0  0  0  0  0  0  0  0  0  0  0
   -0.9208   -3.5500    0.0000 C   0  0  0  0  0  0  0  0  0  0  0  0
    6.9167   -4.7625    0.0000 C   0  0  0  0  0  0  0  0  0  0  0  0
    5.4917   -0.6792    0.0000 C   0  0  0  0  0  0  0  0  0  0  0  0
   12.6167   -4.7500    0.0000 C   0  0  0  0  0  0  0  0  0  0  0  0
   11.9042   -3.5125    0.0000 C   0  0  0  0  0  0  0  0  0  0  0  0
    3.3500   -3.5375    0.0000 C   0  0  0  0  0  0  0  0  0  0  0  0
    6.2000   -3.5292    0.0000 C   0  0  0  0  0  0  0  0  0  0  0  0
    0.5042   -3.5417    0.0000 C   0  0  0  0  0  0  0  0  0  0  0  0
    9.0500   -3.5167    0.0000 C   0  0  0  0  0  0  0  0  0  0  0  0
    4.0667    0.1458    0.0000 C   0  0  0  0  0  0  0  0  0  0  0  0
    1.2167    0.1458    0.0000 C   0  0  0  0  0  0  0  0  0  0  0  0
   -1.6333    0.1458    0.0000 C   0  0  0  0  0  0  0  0  0  0  0  0
   -2.3500   -3.5542    0.0000 C   0  0  0  0  0  0  0  0  0  0  0  0
  2 29  1  0
  3 11  2  0
  4 15  2  0
  5 17  2  0
  6 12  2  0
  7 14  2  0
  8 10  2  0
  9 28  1  0
 10 24  1  0
 11 19  1  0
 12 26  1  0
 13  2  2  0
 14 21  1  0
 15 25  1  0
 16  1  2  0
 17 22  1  0
 18  9  2  0
 19 31  1  0
 20 16  1  0
 21 35  1  0
 22 33  1  0
 23 13  1  0
 24 32  1  0
 25 34  1  0
 26 30  1  0
 27 36  1  0
 28 23  1  0
 29 20  1  0
 30  5  1  0
 31  1  1  0
 32  7  1  0
 33  4  1  0
 34  3  1  0
 35  6  1  0
 36 18  1  0
 37  8  1  0
 38  8  1  0
 39  5  1  0
 40  6  1  0
 41  4  1  0
 42  7  1  0
 43  9  1  0
 44  2  1  0
 45  1  1  0
 46  3  1  0
M  END
>  <ID>  (1953) 


>  <MOLENAME>  (1953) 
SOLANESOL

>  <therap>  (1953) 
nan

>  <ref>  (1953) 
Biochem J 102:313, 325 (1966); 128: 11P (1972); Nature 1966: 212, 1364; Phytochemistry 39:1383 (1995); J Nat Prod 46:174 (1983); J Org Chem 54:3390 (1989) 

>  <cas#>  (1953) 
13190-97-1

>  <source>  (1953) 
Nicotiana tabacum; Betulaprenol 9: mp 42 C

>  <status>  (1953) 
undetermined activity

>  <tradename>  (1953) 
nan

>  <SMILES>  (1953) 
CC(C)=CCC/C(C)=C/CC/C(C)=C/CC/C(C)=C/CC/C(C)=C/CC/C(C)=C/CC/C(C)=C/CC/C(C)=C/CC/C(C)=C/CO

>  <standardized_failed>  (1953) 
False

$$$$

     RDKit          2D

 11 12  0  0  0  0  0  0  0  0999 V2000
    3.0167   -1.9542    0.0000 C   0  0  0  0  0  0  0  0  0  0  0  0
    3.0250   -3.2917    0.0000 N   0  0  0  0  0  0  0  0  0  0  0  0
    3.5042   -2.6167    0.0000 C   0  0  0  0  0  0  0  0  0  0  0  0
    2.2292   -2.2167    0.0000 C   0  0  0  0  0  0  0  0  0  0  0  0
    2.2375   -3.0417    0.0000 C   0  0  0  0  0  0  0  0  0  0  0  0
    3.2667   -1.1667    0.0000 C   0  0  0  0  0  0  0  0  0  0  0  0
    4.0667   -0.9917    0.0000 O   0  0  0  0  0  0  0  0  0  0  0  0
    1.5167   -1.8042    0.0000 C   0  0  0  0  0  0  0  0  0  0  0  0
    1.5167   -3.4542    0.0000 C   0  0  0  0  0  0  0  0  0  0  0  0
    0.8042   -2.2167    0.0000 C   0  0  0  0  0  0  0  0  0  0  0  0
    0.8042   -3.0417    0.0000 C   0  0  0  0  0  0  0  0  0  0  0  0
  2  3  1  0
  3  1  2  0
  4  1  1  0
  5  4  2  0
  6  1  1  0
  7  6  1  0
  8  4  1  0
  9  5  1  0
 10  8  2  0
 11 10  1  0
  2  5  1  0
 11  9  2  0
M  END
>  <ID>  (1954) 


>  <MOLENAME>  (1954) 
INDOLE-3-CARBINOL

>  <therap>  (1954) 
antineoplastic; inhibitor of Amyloid-beta deposition

>  <ref>  (1954) 
Anticancer Res 15:709 (1995); Biochem Mol Biol Int 39:1125 (1996); Biochemistry 45:4727 (2006)

>  <cas#>  (1954) 
700-06-1

>  <source>  (1954) 
Brassica spp

>  <status>  (1954) 
experimental

>  <tradename>  (1954) 
nan

>  <SMILES>  (1954) 
OCc1c[nH]c2c1cccc2

>  <standardized_failed>  (1954) 
False

$$$$

     RDKit          2D

 11 11  0  0  0  0  0  0  0  0999 V2000
    1.3542   -1.9917    0.0000 C   0  0  0  0  0  0  0  0  0  0  0  0
    2.0667    0.0625    0.0000 C   0  0  0  0  0  0  0  0  0  0  0  0
    1.3542    0.4833    0.0000 C   0  0  0  0  0  0  0  0  0  0  0  0
    1.3542   -1.1667    0.0000 C   0  0  0  0  0  0  0  0  0  0  0  0
    2.0667   -0.7625    0.0000 C   0  0  0  0  0  0  0  0  0  0  0  0
    2.0667   -2.4042    0.0000 C   0  0  0  0  0  0  0  0  0  0  0  0
    0.6500   -0.7625    0.0000 C   0  0  0  0  0  0  0  0  0  0  0  0
    0.6500    0.0625    0.0000 C   0  0  0  0  0  0  0  0  0  0  0  0
    1.3542    1.3083    0.0000 C   0  0  0  0  0  0  0  0  0  0  0  0
    2.0667    1.7208    0.0000 O   0  0  0  0  0  0  0  0  0  0  0  0
    0.6417   -2.4042    0.0000 C   0  0  0  0  0  0  0  0  0  0  0  0
  2  5  1  0
  3  8  1  0
  4  1  1  0
  5  4  1  0
  6  1  2  0
  7  4  1  0
  8  7  1  0
  9  3  1  0
 10  9  1  0
 11  1  1  0
  3  2  2  0
M  END
>  <ID>  (1955) 


>  <MOLENAME>  (1955) 
PERILLYL ALCOHOL

>  <therap>  (1955) 
antineoplastic, apoptosis inducer; skin irritant, LD50(rat) 2100 mg/kg po

>  <ref>  (1955) 
CR Hebd Seances Acad Sci 249:306 (1959); Cancer Res 57:420 (1997)

>  <cas#>  (1955) 
536-59-4, 18457-55-1

>  <source>  (1955) 
Ocimum gratissimum

>  <status>  (1955) 
experimental

>  <tradename>  (1955) 
nan

>  <SMILES>  (1955) 
C=C(C)C1CC=C(CO)CC1

>  <standardized_failed>  (1955) 
False

$$$$

     RDKit          2D

 22 26  0  0  0  0  0  0  0  0999 V2000
    1.5792    1.3458    0.0000 C   0  0  0  0  0  0  0  0  0  0  0  0
    1.5375    0.4458    0.0000 C   0  0  0  0  0  0  0  0  0  0  0  0
    2.2500    0.0333    0.0000 C   0  0  0  0  0  0  0  0  0  0  0  0
    2.2500   -0.7917    0.0000 C   0  0  0  0  0  0  0  0  0  0  0  0
    2.2917    2.0583    0.0000 O   0  0  0  0  0  0  0  0  0  0  0  0
    3.1042    1.3458    0.0000 C   0  0  0  0  0  0  0  0  0  0  0  0
    0.0500    1.3458    0.0000 C   0  0  0  0  0  0  0  0  0  0  0  0
    0.8292    0.0333    0.0000 C   0  0  0  0  0  0  0  0  0  0  0  0
    1.7667   -0.5292    0.0000 C   0  0  0  0  0  0  0  0  0  0  0  0
    1.5375   -1.2042    0.0000 C   0  0  0  0  0  0  0  0  0  0  0  0
    0.8292   -0.7917    0.0000 C   0  0  0  0  0  0  0  0  0  0  0  0
    0.0500    0.2833    0.0000 O   0  0  0  0  0  0  0  0  0  0  0  0
    1.2417   -0.5167    0.0000 O   0  0  0  0  0  0  0  0  0  0  0  0
    3.1042    0.4958    0.0000 C   0  0  0  0  0  0  0  0  0  0  0  0
    1.5375   -2.0292    0.0000 C   0  0  0  0  0  0  0  0  0  0  0  0
   -0.5333    1.9333    0.0000 O   0  0  0  0  0  0  0  0  0  0  0  0
    1.8542   -0.1292    0.0000 O   0  0  0  0  0  0  0  0  0  0  0  0
    2.9625   -0.3792    0.0000 O   0  0  0  0  0  0  0  0  0  0  0  0
    2.2500    0.8708    0.0000 C   0  0  0  0  0  0  0  0  0  0  0  0
    1.5292   -2.8542    0.0000 O   0  0  0  0  0  0  0  0  0  0  0  0
    2.2542   -2.4417    0.0000 C   0  0  0  0  0  0  0  0  0  0  0  0
    0.8250   -2.4417    0.0000 C   0  0  0  0  0  0  0  0  0  0  0  0
  2  1  1  0
  3  2  1  0
  4  3  1  0
  1  5  1  6
  6  1  1  0
  7  1  1  0
  8  2  1  0
  4  9  1  1
 10 11  1  0
 11  8  1  0
 12  7  1  0
 11 13  1  1
  6 14  1  6
 10 15  1  6
 16  7  2  0
 17  9  2  0
  3 18  1  6
  2 19  1  6
 20 15  1  0
 21 15  1  0
 22 15  1  0
  6  5  1  0
  8 12  1  1
 14  3  1  0
 13  9  1  0
  4 10  1  0
M  END
>  <ID>  (1956) 


>  <MOLENAME>  (1956) 
PICROTIN

>  <therap>  (1956) 
GABAa receptor antagonist

>  <ref>  (1956) 
J Chem Soc 1952: 1042; 1958: 2987

>  <cas#>  (1956) 
21416-53-5

>  <source>  (1956) 
nontoxin component of PICROTOXIN

>  <status>  (1956) 
experimental

>  <tradename>  (1956) 
nan

>  <SMILES>  (1956) 
CC(C)(O)[C@H]1[C@@H]2C(=O)O[C@H]1[C@H]1OC(=O)[C@@]34O[C@@H]3C[C@]2(O)[C@@]14C

>  <standardized_failed>  (1956) 
False

$$$$

     RDKit          2D

 25 27  0  0  0  0  0  0  0  0999 V2000
    3.2542   -3.5292    0.0000 C   0  0  0  0  0  0  0  0  0  0  0  0
    4.6875   -1.0542    0.0000 C   0  0  0  0  0  0  0  0  0  0  0  0
    3.2500   -4.3542    0.0000 C   0  0  0  0  0  0  0  0  0  0  0  0
    2.5417   -4.7625    0.0000 C   0  0  0  0  0  0  0  0  0  0  0  0
    5.3542   -0.5750    0.0000 C   0  0  0  0  0  0  0  0  0  0  0  0
    4.6875   -1.8792    0.0000 C   0  0  0  0  0  0  0  0  0  0  0  0
    3.9667   -3.1167    0.0000 C   0  0  0  0  0  0  0  0  0  0  0  0
    5.1042    0.2125    0.0000 O   0  0  0  0  0  0  0  0  0  0  0  0
    4.6792   -3.5292    0.0000 C   0  0  0  0  0  0  0  0  0  0  0  0
    3.9667   -2.2917    0.0000 C   0  0  0  0  0  0  0  0  0  0  0  0
    2.5417   -3.1125    0.0000 C   0  0  0  0  0  0  0  0  0  0  0  0
    3.9625   -4.7667    0.0000 C   0  0  0  0  0  0  0  0  0  0  0  0
    4.0167   -0.5667    0.0000 C   0  0  0  0  0  0  0  0  0  0  0  0
    1.8292   -4.3542    0.0000 C   0  0  0  0  0  0  0  0  0  0  0  0
    4.6792   -4.3542    0.0000 C   0  0  0  0  0  0  0  0  0  0  0  0
    4.2792    0.2125    0.0000 C   0  0  0  0  0  0  0  0  0  0  0  0
    6.1375   -0.8292    0.0000 O   0  0  0  0  0  0  0  0  0  0  0  0
    1.8292   -3.5292    0.0000 C   0  0  0  0  0  0  0  0  0  0  0  0
    5.3917   -3.1250    0.0000 C   0  0  0  0  0  0  0  0  0  0  0  0
    3.1250   -5.3417    0.0000 C   0  0  0  0  0  0  0  0  0  0  0  0
    3.2500   -2.7042    0.0000 C   0  0  0  0  0  0  0  0  0  0  0  0
    1.7792   -5.0667    0.0000 C   0  0  0  0  0  0  0  0  0  0  0  0
    3.2167   -0.7792    0.0000 O   0  0  0  0  0  0  0  0  0  0  0  0
    1.0292   -4.5667    0.0000 O   0  0  0  0  0  0  0  0  0  0  0  0
    2.9042   -6.1417    0.0000 O   0  0  0  0  0  0  0  0  0  0  0  0
  2  6  2  0
  3  1  1  0
  4  3  1  0
  5  2  1  0
  6 10  1  0
  7  1  1  0
  8  5  1  0
  9  7  1  0
  7 10  1  6
 11  1  1  0
 12  3  1  0
 13  2  1  0
 14 18  1  0
 15  9  1  0
 16 13  1  0
 17  5  2  0
 18 11  1  0
 19  9  2  0
  4 20  1  0
  1 21  1  6
  4 22  1  1
 13 23  1  6
 14 24  1  6
 25 20  1  0
 14  4  1  0
 15 12  1  0
 16  8  1  0
M  END
>  <ID>  (1957) 


>  <MOLENAME>  (1957) 
ANDROGRAPHOLIDE

>  <therap>  (1957) 
antineoplastic

>  <ref>  (1957) 
Indian J Chem 6: 252 (1968); J Sci Food Agricult 90:43 (2010)

>  <cas#>  (1957) 
5508-58-7

>  <source>  (1957) 
Adrographis peniculata

>  <status>  (1957) 
experimental

>  <tradename>  (1957) 
nan

>  <SMILES>  (1957) 
C=C1CCC2[C@@](C)(CC[C@@H](O)[C@@]2(C)CO)[C@@H]1C/C=C1/C(=O)OC[C@H]1O

>  <standardized_failed>  (1957) 
False

$$$$

     RDKit          2D

 34 37  0  0  0  0  0  0  0  0999 V2000
    2.9167   -5.8792    0.0000 C   0  0  0  0  0  0  0  0  0  0  0  0
    2.9167   -5.0542    0.0000 C   0  0  0  0  0  0  0  0  0  0  0  0
    4.3500   -5.8750    0.0000 C   0  0  0  0  0  0  0  0  0  0  0  0
    3.6375   -6.2917    0.0000 C   0  0  0  0  0  0  0  0  0  0  0  0
    4.3417   -5.0417    0.0000 C   0  0  0  0  0  0  0  0  0  0  0  0
    3.6292   -4.6375    0.0000 O   0  0  0  0  0  0  0  0  0  0  0  0
    2.1917   -2.9917    0.0000 C   0  0  0  0  0  0  0  0  0  0  0  0
    2.2042   -4.6417    0.0000 C   0  0  0  0  0  0  0  0  0  0  0  0
    1.4875   -2.5875    0.0000 C   0  0  0  0  0  0  0  0  0  0  0  0
    1.4792   -1.7542    0.0000 C   0  0  0  0  0  0  0  0  0  0  0  0
    2.9167   -2.5792    0.0000 O   0  0  0  0  0  0  0  0  0  0  0  0
    2.1917   -3.8167    0.0000 O   0  0  0  0  0  0  0  0  0  0  0  0
    2.2042   -6.2917    0.0000 C   0  0  0  0  0  0  0  0  0  0  0  0
    2.1917   -1.3417    0.0000 C   0  0  0  0  0  0  0  0  0  0  0  0
    2.9125   -1.7542    0.0000 C   0  0  0  0  0  0  0  0  0  0  0  0
    5.0542   -4.6292    0.0000 C   0  0  0  0  0  0  0  0  0  0  0  0
    1.4917   -5.0542    0.0000 C   0  0  0  0  0  0  0  0  0  0  0  0
    1.4917   -5.8792    0.0000 C   0  0  0  0  0  0  0  0  0  0  0  0
    5.7667   -5.0417    0.0000 C   0  0  0  0  0  0  0  0  0  0  0  0
    6.4792   -4.6250    0.0000 C   0  0  0  0  0  0  0  0  0  0  0  0
    3.6375   -7.1167    0.0000 O   0  0  0  0  0  0  0  0  0  0  0  0
    6.4792   -3.8000    0.0000 C   0  0  0  0  0  0  0  0  0  0  0  0
    5.0500   -3.8042    0.0000 C   0  0  0  0  0  0  0  0  0  0  0  0
    5.0667   -6.2792    0.0000 O   0  0  0  0  0  0  0  0  0  0  0  0
    5.7542   -3.3917    0.0000 C   0  0  0  0  0  0  0  0  0  0  0  0
    0.7667   -2.9917    0.0000 O   0  0  0  0  0  0  0  0  0  0  0  0
    0.7667   -1.3417    0.0000 O   0  0  0  0  0  0  0  0  0  0  0  0
    2.2042   -7.1167    0.0000 O   0  0  0  0  0  0  0  0  0  0  0  0
    2.1917   -0.5167    0.0000 O   0  0  0  0  0  0  0  0  0  0  0  0
    0.7792   -4.6417    0.0000 O   0  0  0  0  0  0  0  0  0  0  0  0
    7.2000   -5.0292    0.0000 O   0  0  0  0  0  0  0  0  0  0  0  0
    3.6292   -1.3417    0.0000 C   0  0  0  0  0  0  0  0  0  0  0  0
    7.1917   -3.3792    0.0000 O   0  0  0  0  0  0  0  0  0  0  0  0
    3.4792   -0.5292    0.0000 O   0  0  0  0  0  0  0  0  0  0  0  0
  2  1  2  0
  3  4  1  0
  4  1  1  0
  5  3  2  0
  6  2  1  0
  7 12  1  1
  8  2  1  0
  9  7  1  0
 10  9  1  0
 11  7  1  0
 12  8  1  0
 13  1  1  0
 14 15  1  0
 15 11  1  0
 16  5  1  0
 17 18  1  0
 18 13  2  0
 19 16  2  0
 20 19  1  0
 21  4  2  0
 22 25  1  0
 23 16  1  0
 24  3  1  0
 25 23  2  0
  9 26  1  6
 10 27  1  6
 28 13  1  0
 14 29  1  1
 30 17  1  0
 31 20  1  0
 15 32  1  1
 33 22  1  0
 34 32  1  0
  6  5  1  0
 17  8  2  0
 22 20  2  0
 14 10  1  0
M  END
>  <ID>  (1958) 


>  <MOLENAME>  (1958) 
GOSSYPIN

>  <therap>  (1958) 
nan

>  <ref>  (1958) 
Proc Indian Acad Sci Sect A, 24:352, 375 (1946); 25:397 (1947)

>  <cas#>  (1958) 
652-78-8

>  <source>  (1958) 
Gossypium spp, Hibiscus spp

>  <status>  (1958) 
undetermined activity

>  <tradename>  (1958) 
nan

>  <SMILES>  (1958) 
O=c1c(O)c(-c2cc(O)c(O)cc2)oc2c1c(O)cc(O)c2O[C@@H]1O[C@H](CO)[C@H](O)[C@@H](O)[C@H]1O

>  <standardized_failed>  (1958) 
False

$$$$

     RDKit          2D

 14 15  0  0  0  0  0  0  0  0999 V2000
    1.3542   -1.3042    0.0000 N   0  0  0  0  0  0  0  0  0  0  0  0
    2.0792   -0.8917    0.0000 C   0  0  0  0  0  0  0  0  0  0  0  0
    2.0792   -0.0625    0.0000 N   0  0  0  0  0  0  0  0  0  0  0  0
    0.6417   -0.8917    0.0000 C   0  0  0  0  0  0  0  0  0  0  0  0
    0.6417   -0.0625    0.0000 C   0  0  0  0  0  0  0  0  0  0  0  0
    1.3625    0.3583    0.0000 C   0  0  0  0  0  0  0  0  0  0  0  0
    2.8750    0.1958    0.0000 C   0  0  0  0  0  0  0  0  0  0  0  0
    2.8667   -1.1542    0.0000 C   0  0  0  0  0  0  0  0  0  0  0  0
    5.1167   -0.5542    0.0000 Cl  0  0  0  0  0  0  0  0  0  0  0  0
   -0.0708    0.3500    0.0000 C   0  0  0  0  0  0  0  0  0  0  0  0
    3.3625   -0.4792    0.0000 C   0  0  0  0  0  0  0  0  0  0  0  0
   -0.0708   -1.3042    0.0000 C   0  0  0  0  0  0  0  0  0  0  0  0
   -0.7833   -0.0625    0.0000 C   0  0  0  0  0  0  0  0  0  0  0  0
   -0.7833   -0.8917    0.0000 C   0  0  0  0  0  0  0  0  0  0  0  0
  2  1  2  0
  3  2  1  0
  4  1  1  0
  5  4  2  0
  6  5  1  0
  7  3  1  0
  8  2  1  0
 10  5  1  0
 11  8  1  0
 12  4  1  0
 13 14  1  0
 14 12  2  0
  6  3  1  0
  7 11  1  0
 13 10  2  0
M  END
>  <ID>  (1959) 


>  <MOLENAME>  (1959) 
DEOXYPEGANINE HYDROCHLORIDE

>  <therap>  (1959) 
acetylcholinesterase inhibitor, antiParkinsonism

>  <ref>  (1959) 
Naunyn Schmeidebergs Arch Pharmacol 363:429 (2001)

>  <cas#>  (1959) 
61939-05-7

>  <source>  (1959) 
derivative of peganine Peganum spp

>  <status>  (1959) 
experimental

>  <tradename>  (1959) 
nan

>  <SMILES>  (1959) 
c1cc2c(cc1)N=C1CCCN1C2

>  <standardized_failed>  (1959) 
False

$$$$

     RDKit          2D

 19 20  0  0  0  0  0  0  0  0999 V2000
    9.0542   -1.6750    0.0000 N   0  0  0  0  0  0  0  0  0  0  0  0
    8.3417   -2.9042    0.0000 C   0  0  0  0  0  0  0  0  0  0  0  0
    7.6292   -1.6750    0.0000 C   0  0  0  0  0  0  0  0  0  0  0  0
    6.9167   -2.9167    0.0000 N   0  0  0  0  0  0  0  0  0  0  0  0
    9.0500   -2.5000    0.0000 C   0  0  0  0  0  0  0  0  0  0  0  0
    8.3417   -1.2542    0.0000 C   0  0  0  0  0  0  0  0  0  0  0  0
    8.3417   -2.0792    0.0000 C   0  0  0  0  0  0  0  0  0  0  0  0
    6.9167   -2.0875    0.0000 C   0  0  0  0  0  0  0  0  0  0  0  0
    7.6292   -3.3292    0.0000 C   0  0  0  0  0  0  0  0  0  0  0  0
    5.4792   -2.9167    0.0000 C   0  0  0  0  0  0  0  0  0  0  0  0
    6.1917   -3.3292    0.0000 O   0  0  0  0  0  0  0  0  0  0  0  0
    6.2000   -1.6750    0.0000 C   0  0  0  0  0  0  0  0  0  0  0  0
    5.4792   -2.0875    0.0000 C   0  0  0  0  0  0  0  0  0  0  0  0
    9.7667   -1.2625    0.0000 C   0  0  0  0  0  0  0  0  0  0  0  0
    4.7667   -3.3292    0.0000 O   0  0  0  0  0  0  0  0  0  0  0  0
    8.8250   -4.0000    0.0000 Cl  0  0  0  0  0  0  0  0  0  0  0  0
    9.7625   -2.9125    0.0000 C   0  0  0  0  0  0  0  0  0  0  0  0
   10.4792   -1.6792    0.0000 C   0  0  0  0  0  0  0  0  0  0  0  0
   10.4792   -2.5042    0.0000 C   0  0  0  0  0  0  0  0  0  0  0  0
  2  5  1  0
  3  6  1  0
  4  8  1  0
  5  1  1  0
  6  1  1  0
  7  3  1  0
  8  3  1  0
  9  2  1  0
 10 13  1  0
 11 10  2  0
 12  8  1  0
 13 12  1  0
 14  1  1  0
 15 10  1  0
 17  5  1  0
 18 14  1  0
 19 18  1  0
 17 19  1  0
  2  7  1  0
  4  9  1  0
M  END
>  <ID>  (1960) 


>  <MOLENAME>  (1960) 
LUPANYL ACID HYDROCHLORIDE

>  <therap>  (1960) 
nan

>  <ref>  (1960) 
nan

>  <cas#>  (1960) 
nan

>  <source>  (1960) 
Anabasis aphylla

>  <status>  (1960) 
undetermined activity

>  <tradename>  (1960) 
nan

>  <SMILES>  (1960) 
O=C(O)CCC1NCC2CC1CN1CCCCC21

>  <standardized_failed>  (1960) 
False

$$$$

     RDKit          2D

 27 30  0  0  0  0  0  0  0  0999 V2000
    6.4542   -3.5542    0.0000 C   0  0  0  0  0  0  0  0  0  0  0  0
    4.3125   -4.7917    0.0000 C   0  0  0  0  0  0  0  0  0  0  0  0
    4.3125   -5.6167    0.0000 C   0  0  0  0  0  0  0  0  0  0  0  0
    6.4542   -4.3792    0.0000 C   0  0  0  0  0  0  0  0  0  0  0  0
    5.0250   -4.3792    0.0000 C   0  0  0  0  0  0  0  0  0  0  0  0
    5.7417   -4.7917    0.0000 C   0  0  0  0  0  0  0  0  0  0  0  0
    7.2417   -3.3000    0.0000 C   0  0  0  0  0  0  0  0  0  0  0  0
    5.0250   -6.0292    0.0000 C   0  0  0  0  0  0  0  0  0  0  0  0
    5.7375   -3.1417    0.0000 C   0  0  0  0  0  0  0  0  0  0  0  0
    5.7417   -5.6167    0.0000 C   0  0  0  0  0  0  0  0  0  0  0  0
    5.0250   -3.5542    0.0000 C   0  0  0  0  0  0  0  0  0  0  0  0
    7.2417   -4.6375    0.0000 C   0  0  0  0  0  0  0  0  0  0  0  0
    3.6000   -4.3792    0.0000 C   0  0  0  0  0  0  0  0  0  0  0  0
    7.7250   -3.9667    0.0000 C   0  0  0  0  0  0  0  0  0  0  0  0
    7.4917   -2.5125    0.0000 C   0  0  0  0  0  0  0  0  0  0  0  0
    3.6000   -6.0292    0.0000 C   0  0  0  0  0  0  0  0  0  0  0  0
    6.6417   -0.5000    0.0000 C   0  0  0  0  0  0  0  0  0  0  0  0
    6.9417   -1.9000    0.0000 C   0  0  0  0  0  0  0  0  0  0  0  0
    7.1917   -1.1125    0.0000 O   0  0  0  0  0  0  0  0  0  0  0  0
    6.9000    0.2833    0.0000 O   0  0  0  0  0  0  0  0  0  0  0  0
    8.3000   -2.3375    0.0000 O   0  0  0  0  0  0  0  0  0  0  0  0
    6.4125   -2.7000    0.0000 C   0  0  0  0  0  0  0  0  0  0  0  0
    2.8792   -4.7917    0.0000 C   0  0  0  0  0  0  0  0  0  0  0  0
    2.8792   -5.6167    0.0000 C   0  0  0  0  0  0  0  0  0  0  0  0
    4.3125   -3.9667    0.0000 C   0  0  0  0  0  0  0  0  0  0  0  0
    2.1625   -6.0417    0.0000 O   0  0  0  0  0  0  0  0  0  0  0  0
    5.8375   -0.6667    0.0000 C   0  0  0  0  0  0  0  0  0  0  0  0
  2  5  1  0
  3  2  1  0
  4  1  1  0
  5 11  1  0
  6  4  1  0
  7  1  1  0
  8 10  1  0
  9  1  1  0
 10  6  1  0
 11  9  1  0
 12  4  1  0
 13  2  1  0
 14  7  1  0
  7 15  1  1
 16  3  1  0
 17 19  1  0
 18 15  1  0
 19 18  1  0
 20 17  2  0
 21 15  2  0
  1 22  1  1
 23 13  1  0
 24 23  1  0
  2 25  1  1
 24 26  1  1
 27 17  1  0
 14 12  1  0
  5  6  1  0
  8  3  2  0
 24 16  1  0
M  END
>  <ID>  (1961) 


>  <MOLENAME>  (1961) 
21-ACETOXYPREGNENOLONE

>  <therap>  (1961) 
precursor in corticoid biosynthesis, derivative

>  <ref>  (1961) 
PNAS 94:4895 (1997)

>  <cas#>  (1961) 
566-78-9

>  <source>  (1961) 
semisynthetic

>  <status>  (1961) 
undetermined activity

>  <tradename>  (1961) 
nan

>  <SMILES>  (1961) 
CC(=O)OCC(=O)[C@H]1CCC2C3CC=C4C[C@@H](O)CC[C@]4(C)C3CC[C@@]21C

>  <standardized_failed>  (1961) 
False

$$$$

     RDKit          2D

 34 37  0  0  0  0  0  0  0  0999 V2000
    6.6292  -17.2667    0.0000 C   0  0  0  0  0  0  0  0  0  0  0  0
    7.3375  -19.3167    0.0000 C   0  0  0  0  0  0  0  0  0  0  0  0
    6.6167  -16.4417    0.0000 C   0  0  0  0  0  0  0  0  0  0  0  0
    7.3375  -17.6750    0.0000 C   0  0  0  0  0  0  0  0  0  0  0  0
    8.0500  -19.7292    0.0000 C   0  0  0  0  0  0  0  0  0  0  0  0
    8.0500  -20.5625    0.0000 C   0  0  0  0  0  0  0  0  0  0  0  0
    6.6167  -19.7292    0.0000 O   0  0  0  0  0  0  0  0  0  0  0  0
    5.8417  -17.5250    0.0000 C   0  0  0  0  0  0  0  0  0  0  0  0
    7.3375  -18.5000    0.0000 O   0  0  0  0  0  0  0  0  0  0  0  0
    7.3292  -20.9667    0.0000 C   0  0  0  0  0  0  0  0  0  0  0  0
    6.6167  -20.5542    0.0000 C   0  0  0  0  0  0  0  0  0  0  0  0
    5.8375  -16.1875    0.0000 C   0  0  0  0  0  0  0  0  0  0  0  0
    5.3542  -16.8542    0.0000 C   0  0  0  0  0  0  0  0  0  0  0  0
    7.3375  -16.0250    0.0000 C   0  0  0  0  0  0  0  0  0  0  0  0
    5.2542  -18.1042    0.0000 O   0  0  0  0  0  0  0  0  0  0  0  0
    8.0500  -17.2667    0.0000 O   0  0  0  0  0  0  0  0  0  0  0  0
    4.3292  -18.0750    0.0000 C   0  0  0  0  0  0  0  0  0  0  0  0
    3.9292  -18.7917    0.0000 C   0  0  0  0  0  0  0  0  0  0  0  0
    8.0500  -16.4417    0.0000 C   0  0  0  0  0  0  0  0  0  0  0  0
    3.1042  -18.8000    0.0000 C   0  0  0  0  0  0  0  0  0  0  0  0
    3.9167  -17.3667    0.0000 O   0  0  0  0  0  0  0  0  0  0  0  0
    6.6167  -15.6167    0.0000 O   0  0  0  0  0  0  0  0  0  0  0  0
    8.7667  -19.3167    0.0000 O   0  0  0  0  0  0  0  0  0  0  0  0
    8.7625  -20.9750    0.0000 O   0  0  0  0  0  0  0  0  0  0  0  0
    7.3292  -21.7917    0.0000 O   0  0  0  0  0  0  0  0  0  0  0  0
    5.4167  -15.4667    0.0000 O   0  0  0  0  0  0  0  0  0  0  0  0
    2.6917  -19.5167    0.0000 C   0  0  0  0  0  0  0  0  0  0  0  0
    5.9042  -20.9667    0.0000 C   0  0  0  0  0  0  0  0  0  0  0  0
    6.0542  -21.7792    0.0000 O   0  0  0  0  0  0  0  0  0  0  0  0
    3.1042  -20.2250    0.0000 C   0  0  0  0  0  0  0  0  0  0  0  0
    1.8667  -19.5167    0.0000 C   0  0  0  0  0  0  0  0  0  0  0  0
    2.7000  -20.9375    0.0000 C   0  0  0  0  0  0  0  0  0  0  0  0
    1.4667  -20.2375    0.0000 C   0  0  0  0  0  0  0  0  0  0  0  0
    1.8792  -20.9417    0.0000 C   0  0  0  0  0  0  0  0  0  0  0  0
  2  9  1  1
  3  1  1  0
  1  4  1  6
  5  2  1  0
  6  5  1  0
  7  2  1  0
  1  8  1  0
  4  9  1  1
 10 11  1  0
 11  7  1  0
 12  3  1  0
 13  8  1  0
 14  3  1  0
  8 15  1  1
 16  4  1  0
 17 15  1  0
 18 17  1  0
 19 16  1  0
 20 18  2  0
 21 17  2  0
  3 22  1  1
  5 23  1  6
  6 24  1  1
 10 25  1  6
 12 26  1  1
 27 20  1  0
 11 28  1  1
 29 28  1  0
 30 27  2  0
 31 27  1  0
 32 30  1  0
 33 31  2  0
 34 33  1  0
 13 12  1  0
 19 14  2  0
 10  6  1  0
 34 32  2  0
M  END
>  <ID>  (1962) 


>  <MOLENAME>  (1962) 
HARPAGOSIDE

>  <therap>  (1962) 
nan

>  <ref>  (1962) 
J Chem Soc Perkin 1 1979:2473; Phytochemistry 40:1569 (1995)

>  <cas#>  (1962) 
19210-12-9

>  <source>  (1962) 
Melittis melissophyllum, Harpagophytum procumbens

>  <status>  (1962) 
undetermined activity

>  <tradename>  (1962) 
nan

>  <SMILES>  (1962) 
O=C(/C=C/c1ccccc1)O[C@H]1C[C@@H](O)[C@]2(O)C=CO[C@@H](O[C@@H]3O[C@H](CO)[C@@H](O)[C@H](O)[C@H]3O)[C@H]12

>  <standardized_failed>  (1962) 
False

$$$$

     RDKit          2D

 14 15  0  0  0  0  0  0  0  0999 V2000
    2.3000   -3.2667    0.0000 C   0  0  0  0  0  0  0  0  0  0  0  0
    1.5792   -2.0292    0.0000 C   0  0  0  0  0  0  0  0  0  0  0  0
    1.5792   -2.8542    0.0000 C   0  0  0  0  0  0  0  0  0  0  0  0
    2.2917   -1.6125    0.0000 C   0  0  0  0  0  0  0  0  0  0  0  0
    3.0042   -2.0167    0.0000 C   0  0  0  0  0  0  0  0  0  0  0  0
    3.0125   -2.8500    0.0000 C   0  0  0  0  0  0  0  0  0  0  0  0
    0.8667   -3.2667    0.0000 C   0  0  0  0  0  0  0  0  0  0  0  0
    2.3000   -4.0917    0.0000 O   0  0  0  0  0  0  0  0  0  0  0  0
    2.2875   -0.7875    0.0000 O   0  0  0  0  0  0  0  0  0  0  0  0
    0.8667   -1.6167    0.0000 C   0  0  0  0  0  0  0  0  0  0  0  0
    0.8667   -4.0917    0.0000 O   0  0  0  0  0  0  0  0  0  0  0  0
    3.7167   -1.6042    0.0000 C   0  0  0  0  0  0  0  0  0  0  0  0
    0.1542   -2.0292    0.0000 C   0  0  0  0  0  0  0  0  0  0  0  0
    0.1542   -2.8542    0.0000 C   0  0  0  0  0  0  0  0  0  0  0  0
  2  3  2  0
  3  1  1  0
  4  5  1  0
  5  6  2  0
  6  1  1  0
  7  3  1  0
  8  1  2  0
  9  4  2  0
 10  2  1  0
 11  7  1  0
 12  5  1  0
 13 14  1  0
 14  7  2  0
  2  4  1  0
 13 10  2  0
M  END
>  <ID>  (1963) 


>  <MOLENAME>  (1963) 
PLUMBAGIN

>  <therap>  (1963) 
antibacterial, antifungal, tuberculostatic; antifeedant (worm)

>  <ref>  (1963) 
JACS 58:572 (1936); Indian J Chem 6:681 (1968); Fitoterapia 1990:387

>  <cas#>  (1963) 
481-42-5

>  <source>  (1963) 
Aristea, Diospyros & Plumbago spp.

>  <status>  (1963) 
experimental

>  <tradename>  (1963) 
nan

>  <SMILES>  (1963) 
CC1=CC(=O)c2c(cccc2O)C1=O

>  <standardized_failed>  (1963) 
False

$$$$

     RDKit          2D

  8  7  0  0  0  0  0  0  0  0999 V2000
   -0.3208   -1.6167    0.0000 C   0  0  0  0  0  0  0  0  0  0  0  0
    3.2500   -2.0292    0.0000 C   0  0  0  0  0  0  0  0  0  0  0  0
   -1.0333   -2.0292    0.0000 C   0  0  0  0  0  0  0  0  0  0  0  0
    3.9667   -1.6167    0.0000 C   0  0  0  0  0  0  0  0  0  0  0  0
    1.1042   -1.6167    0.0000 S   0  0  0  0  0  0  0  0  0  0  0  0
    1.8167   -2.0292    0.0000 S   0  0  0  0  0  0  0  0  0  0  0  0
    0.3917   -2.0292    0.0000 C   0  0  0  0  0  0  0  0  0  0  0  0
    2.5375   -1.6167    0.0000 C   0  0  0  0  0  0  0  0  0  0  0  0
  2  8  1  0
  3  1  2  0
  4  2  2  0
  5  7  1  0
  6  5  1  0
  7  1  1  0
  8  6  1  0
M  END
>  <ID>  (1964) 


>  <MOLENAME>  (1964) 
GARLICIN

>  <therap>  (1964) 
antineoplastic, antibacterial, apoptosis inducer, insecticide

>  <ref>  (1964) 
Pharmazie 20:441 (1965); J Org Chem 40:1567 (1975); Food Chem Toxicol 26:297 (1988); Cancer Res 35:3493 (1993); Bioxhim Biophys Acta 1315:15 (1996)

>  <cas#>  (1964) 
2179-57-9

>  <source>  (1964) 
Allium spp, Descurainia sophia

>  <status>  (1964) 
experimental

>  <tradename>  (1964) 
nan

>  <SMILES>  (1964) 
C=CCSSCC=C

>  <standardized_failed>  (1964) 
False

$$$$

     RDKit          2D

 28 31  0  0  0  0  0  0  0  0999 V2000
    5.6417   -2.9125    0.0000 C   0  0  0  0  0  0  0  0  0  0  0  0
    3.4917   -4.1292    0.0000 C   0  0  0  0  0  0  0  0  0  0  0  0
    5.6292   -3.7375    0.0000 C   0  0  0  0  0  0  0  0  0  0  0  0
    4.2042   -3.7167    0.0000 C   0  0  0  0  0  0  0  0  0  0  0  0
    4.9125   -4.1417    0.0000 C   0  0  0  0  0  0  0  0  0  0  0  0
    6.4250   -2.6750    0.0000 C   0  0  0  0  0  0  0  0  0  0  0  0
    3.4875   -4.9542    0.0000 C   0  0  0  0  0  0  0  0  0  0  0  0
    4.9292   -2.4917    0.0000 C   0  0  0  0  0  0  0  0  0  0  0  0
    4.2125   -2.8917    0.0000 C   0  0  0  0  0  0  0  0  0  0  0  0
    6.4042   -4.0042    0.0000 C   0  0  0  0  0  0  0  0  0  0  0  0
    2.7792   -3.7167    0.0000 C   0  0  0  0  0  0  0  0  0  0  0  0
    6.9000   -3.3417    0.0000 C   0  0  0  0  0  0  0  0  0  0  0  0
    4.9167   -4.9625    0.0000 C   0  0  0  0  0  0  0  0  0  0  0  0
    2.7792   -5.3667    0.0000 C   0  0  0  0  0  0  0  0  0  0  0  0
    4.2000   -5.3667    0.0000 C   0  0  0  0  0  0  0  0  0  0  0  0
    2.0667   -4.9542    0.0000 C   0  0  0  0  0  0  0  0  0  0  0  0
    1.3542   -5.3667    0.0000 O   0  0  0  0  0  0  0  0  0  0  0  0
    6.8292   -1.9542    0.0000 C   0  0  0  0  0  0  0  0  0  0  0  0
    2.0667   -4.1292    0.0000 C   0  0  0  0  0  0  0  0  0  0  0  0
    5.6375   -2.0875    0.0000 C   0  0  0  0  0  0  0  0  0  0  0  0
    3.4875   -3.3042    0.0000 C   0  0  0  0  0  0  0  0  0  0  0  0
    8.0750   -2.6542    0.0000 C   0  0  0  0  0  0  0  0  0  0  0  0
    7.6542   -1.9500    0.0000 C   0  0  0  0  0  0  0  0  0  0  0  0
    6.4125   -1.2417    0.0000 C   0  0  0  0  0  0  0  0  0  0  0  0
    8.9000   -2.6500    0.0000 C   0  0  0  0  0  0  0  0  0  0  0  0
    9.3167   -3.3625    0.0000 C   0  0  0  0  0  0  0  0  0  0  0  0
   10.1417   -3.3542    0.0000 C   0  0  0  0  0  0  0  0  0  0  0  0
    8.9125   -4.0792    0.0000 C   0  0  0  0  0  0  0  0  0  0  0  0
  2  4  1  0
  3  1  1  0
  4  9  1  0
  5  3  1  0
  6  1  1  0
  7  2  1  0
  8  1  1  0
  9  8  1  0
 10  3  1  0
 11  2  1  0
 12  6  1  0
 13  5  1  0
  7 14  1  1
 15 13  1  0
 16 19  1  0
 17 16  2  0
 18  6  1  0
 19 11  1  0
  1 20  1  1
  2 21  1  1
 22 23  1  0
 23 18  1  0
 24 18  1  0
 25 22  1  0
 26 25  1  0
 27 26  1  0
 28 26  1  0
 10 12  1  0
  5  4  1  0
  7 15  1  0
 14 16  1  0
M  END
>  <ID>  (1965) 


>  <MOLENAME>  (1965) 
CHOLESTAN-3-ONE

>  <therap>  (1965) 
nan

>  <ref>  (1965) 
Biochem J 40:79 (1946)

>  <cas#>  (1965) 
566-88-1

>  <source>  (1965) 
minor mammalian sterol

>  <status>  (1965) 
undetermined activity

>  <tradename>  (1965) 
nan

>  <SMILES>  (1965) 
CC(C)CCCC(C)C1CCC2C3CC[C@H]4CC(=O)CC[C@]4(C)C3CC[C@]12C

>  <standardized_failed>  (1965) 
False

$$$$

     RDKit          2D

 33 37  0  0  0  0  0  0  0  0999 V2000
    7.2792   -1.7500    0.0000 C   0  0  0  0  0  0  0  0  0  0  0  0
    5.8417   -2.5875    0.0000 C   0  0  0  0  0  0  0  0  0  0  0  0
    5.8417   -1.7500    0.0000 C   0  0  0  0  0  0  0  0  0  0  0  0
    7.2875   -2.5875    0.0000 C   0  0  0  0  0  0  0  0  0  0  0  0
    6.5542   -3.0000    0.0000 C   0  0  0  0  0  0  0  0  0  0  0  0
    6.5625   -1.3292    0.0000 C   0  0  0  0  0  0  0  0  0  0  0  0
    6.5542   -3.8250    0.0000 C   0  0  0  0  0  0  0  0  0  0  0  0
    8.0750   -2.8375    0.0000 C   0  0  0  0  0  0  0  0  0  0  0  0
    5.1292   -2.9917    0.0000 C   0  0  0  0  0  0  0  0  0  0  0  0
    5.1292   -1.3375    0.0000 C   0  0  0  0  0  0  0  0  0  0  0  0
    6.5542   -5.4667    0.0000 C   0  0  0  0  0  0  0  0  0  0  0  0
    8.5625   -2.1625    0.0000 O   0  0  0  0  0  0  0  0  0  0  0  0
    8.0750   -1.4917    0.0000 C   0  0  0  0  0  0  0  0  0  0  0  0
    5.8375   -5.0500    0.0000 C   0  0  0  0  0  0  0  0  0  0  0  0
    7.2667   -5.0500    0.0000 C   0  0  0  0  0  0  0  0  0  0  0  0
    4.4167   -1.7542    0.0000 C   0  0  0  0  0  0  0  0  0  0  0  0
    4.4167   -2.5792    0.0000 C   0  0  0  0  0  0  0  0  0  0  0  0
    6.6042   -0.4792    0.0000 O   0  0  0  0  0  0  0  0  0  0  0  0
    7.2667   -4.2292    0.0000 C   0  0  0  0  0  0  0  0  0  0  0  0
    5.8417   -4.2292    0.0000 C   0  0  0  0  0  0  0  0  0  0  0  0
    7.3375   -0.1042    0.0000 C   0  0  0  0  0  0  0  0  0  0  0  0
    3.6292   -2.8375    0.0000 O   0  0  0  0  0  0  0  0  0  0  0  0
    3.6292   -1.5000    0.0000 O   0  0  0  0  0  0  0  0  0  0  0  0
    3.1500   -2.1667    0.0000 C   0  0  0  0  0  0  0  0  0  0  0  0
    8.3292   -3.6250    0.0000 O   0  0  0  0  0  0  0  0  0  0  0  0
    7.3750    0.7208    0.0000 O   0  0  0  0  0  0  0  0  0  0  0  0
    6.5542   -6.2917    0.0000 O   0  0  0  0  0  0  0  0  0  0  0  0
    5.1250   -5.4625    0.0000 O   0  0  0  0  0  0  0  0  0  0  0  0
    7.9875   -5.4625    0.0000 O   0  0  0  0  0  0  0  0  0  0  0  0
    8.0292   -0.5500    0.0000 C   0  0  0  0  0  0  0  0  0  0  0  0
    5.8375   -6.7042    0.0000 C   0  0  0  0  0  0  0  0  0  0  0  0
    4.4125   -5.0500    0.0000 C   0  0  0  0  0  0  0  0  0  0  0  0
    8.7000   -5.0500    0.0000 C   0  0  0  0  0  0  0  0  0  0  0  0
  2  3  2  0
  3  6  1  0
  4  1  1  0
  5  4  1  0
  1  6  1  0
  5  7  1  6
  4  8  1  6
  9  2  1  0
 10  3  1  0
 11 14  2  0
 12 13  1  0
  1 13  1  1
 14 20  1  0
 15 19  2  0
 16 10  2  0
 17 16  1  0
  6 18  1  6
 19  7  1  0
 20  7  2  0
 21 18  1  0
 22 17  1  0
 23 16  1  0
 24 23  1  0
 25  8  2  0
 26 21  2  0
 27 11  1  0
 28 14  1  0
 29 15  1  0
 30 21  1  0
 31 27  1  0
 32 28  1  0
 33 29  1  0
 12  8  1  0
  2  5  1  0
  9 17  2  0
 11 15  1  0
 22 24  1  0
M  END
>  <ID>  (1966) 


>  <MOLENAME>  (1966) 
PODOPHYLLIN ACETATE

>  <therap>  (1966) 
nan

>  <ref>  (1966) 
nan

>  <cas#>  (1966) 
1180-34-3

>  <source>  (1966) 
derivative

>  <status>  (1966) 
undetermined activity

>  <tradename>  (1966) 
nan

>  <SMILES>  (1966) 
COc1c(OC)c(OC)cc([C@@H]2c3c(cc4OCOc4c3)[C@H](OC(C)=O)[C@H]3COC(=O)[C@H]23)c1

>  <standardized_failed>  (1966) 
False

$$$$

     RDKit          2D

 34 38  0  0  0  0  0  0  0  0999 V2000
    6.5125   -3.6292    0.0000 C   0  0  0  0  0  0  0  0  0  0  0  0
    5.8292   -4.8250    0.0000 C   0  0  0  0  0  0  0  0  0  0  0  0
    6.5125   -4.4167    0.0000 C   0  0  0  0  0  0  0  0  0  0  0  0
    4.4542   -4.8292    0.0000 C   0  0  0  0  0  0  0  0  0  0  0  0
    5.1375   -4.4292    0.0000 C   0  0  0  0  0  0  0  0  0  0  0  0
    5.8250   -3.2375    0.0000 C   0  0  0  0  0  0  0  0  0  0  0  0
    5.1292   -3.6375    0.0000 C   0  0  0  0  0  0  0  0  0  0  0  0
    4.4625   -5.6292    0.0000 C   0  0  0  0  0  0  0  0  0  0  0  0
    7.1917   -3.2292    0.0000 C   0  0  0  0  0  0  0  0  0  0  0  0
    3.7750   -6.0292    0.0000 C   0  0  0  0  0  0  0  0  0  0  0  0
    7.8875   -2.0375    0.0000 C   0  0  0  0  0  0  0  0  0  0  0  0
    7.1917   -2.4292    0.0000 C   0  0  0  0  0  0  0  0  0  0  0  0
    7.8792   -3.6292    0.0000 C   0  0  0  0  0  0  0  0  0  0  0  0
    5.8375   -5.6167    0.0000 C   0  0  0  0  0  0  0  0  0  0  0  0
    8.2917   -1.3167    0.0000 C   0  0  0  0  0  0  0  0  0  0  0  0
    3.7625   -4.4417    0.0000 C   0  0  0  0  0  0  0  0  0  0  0  0
    7.1917   -4.8167    0.0000 C   0  0  0  0  0  0  0  0  0  0  0  0
    5.1500   -6.0250    0.0000 C   0  0  0  0  0  0  0  0  0  0  0  0
    3.0792   -5.6375    0.0000 C   0  0  0  0  0  0  0  0  0  0  0  0
    4.4125   -3.2292    0.0000 O   0  0  0  0  0  0  0  0  0  0  0  0
    7.8792   -4.4167    0.0000 C   0  0  0  0  0  0  0  0  0  0  0  0
    8.5750   -2.4417    0.0000 C   0  0  0  0  0  0  0  0  0  0  0  0
    8.5750   -3.2375    0.0000 C   0  0  0  0  0  0  0  0  0  0  0  0
    7.8750   -0.6042    0.0000 O   0  0  0  0  0  0  0  0  0  0  0  0
    3.0750   -4.8417    0.0000 C   0  0  0  0  0  0  0  0  0  0  0  0
    5.8250   -4.0000    0.0000 C   0  0  0  0  0  0  0  0  0  0  0  0
    4.4500   -4.0042    0.0000 C   0  0  0  0  0  0  0  0  0  0  0  0
    6.5042   -5.2417    0.0000 C   0  0  0  0  0  0  0  0  0  0  0  0
    9.1125   -1.3042    0.0000 O   0  0  0  0  0  0  0  0  0  0  0  0
    3.2375   -6.5917    0.0000 C   0  0  0  0  0  0  0  0  0  0  0  0
    4.1750   -6.5292    0.0000 C   0  0  0  0  0  0  0  0  0  0  0  0
    2.3625   -6.0417    0.0000 O   0  0  0  0  0  0  0  0  0  0  0  0
    7.3000   -1.4500    0.0000 C   0  0  0  0  0  0  0  0  0  0  0  0
    8.5917   -4.0417    0.0000 C   0  0  0  0  0  0  0  0  0  0  0  0
  2  3  1  0
  3  1  1  0
  4  5  1  0
  5  7  1  0
  6  1  2  0
  7  6  1  0
  8  4  1  0
  9  1  1  0
 10  8  1  0
 11 12  1  0
  9 12  1  1
 13  9  1  0
 14  2  1  0
 11 15  1  0
 16  4  1  0
 17  3  1  0
 18 14  1  0
 19 25  1  0
 20  7  2  0
 21 13  1  0
 22 23  1  0
 23 13  1  0
 24 15  2  0
 25 16  1  0
  2 26  1  1
  4 27  1  1
  3 28  1  6
 29 15  1  0
 30 10  1  0
 31 10  1  0
 19 32  1  1
 11 33  1  6
 13 34  1  1
 21 17  1  0
  5  2  1  0
 22 11  1  0
 18  8  1  0
 10 19  1  0
M  END
>  <ID>  (1967) 


>  <MOLENAME>  (1967) 
18alpha-GLYCYRRHETINIC ACID

>  <therap>  (1967) 
antiinflammatory

>  <ref>  (1967) 
nan

>  <cas#>  (1967) 
nan

>  <source>  (1967) 
epimer of aglycone Glycyrrhiza glabra

>  <status>  (1967) 
experimental

>  <tradename>  (1967) 
nan

>  <SMILES>  (1967) 
CC1(C)C2CC[C@]3(C)C(C(=O)C=C4[C@H]5C[C@@](C)(C(=O)O)CC[C@]5(C)CC[C@]43C)[C@@]2(C)CC[C@@H]1O

>  <standardized_failed>  (1967) 
False

$$$$

     RDKit          2D

 12 11  0  0  0  0  0  0  0  0999 V2000
    4.0292   -4.4667    0.0000 C   0  0  0  0  0  0  0  0  0  0  0  0
    8.3167   -4.4667    0.0000 C   0  0  0  0  0  0  0  0  0  0  0  0
    4.0292   -3.6417    0.0000 N   0  0  0  0  0  0  0  0  0  0  0  0
    8.3250   -3.6417    0.0000 O   0  0  0  0  0  0  0  0  0  0  0  0
    4.7417   -4.8792    0.0000 N   0  0  0  0  0  0  0  0  0  0  0  0
    7.6042   -4.8792    0.0000 C   0  0  0  0  0  0  0  0  0  0  0  0
    3.3167   -4.8792    0.0000 N   0  0  0  0  0  0  0  0  0  0  0  0
    9.0375   -4.8792    0.0000 O   0  0  0  0  0  0  0  0  0  0  0  0
    7.6000   -5.7042    0.0000 N   0  0  0  0  0  0  0  0  0  0  0  0
    6.8917   -4.4667    0.0000 C   0  0  0  0  0  0  0  0  0  0  0  0
    5.4625   -4.4667    0.0000 O   0  0  0  0  0  0  0  0  0  0  0  0
    6.1750   -4.8792    0.0000 C   0  0  0  0  0  0  0  0  0  0  0  0
  2  6  1  0
  3  1  2  0
  4  2  2  0
  5  1  1  0
  6 10  1  0
  7  1  1  0
  8  2  1  0
  6  9  1  1
 10 12  1  0
 11  5  1  0
 12 11  1  0
M  END
>  <ID>  (1968) 


>  <MOLENAME>  (1968) 
CANAVANINE

>  <therap>  (1968) 
NO synthase inhibitor

>  <ref>  (1968) 
Phytochemistry 6: 863 (1967); Eur J Pharmacol 269: 269; 271: 87 (1994)

>  <cas#>  (1968) 
543-38-4

>  <source>  (1968) 
Canavalia ensiformis

>  <status>  (1968) 
experimental

>  <tradename>  (1968) 
nan

>  <SMILES>  (1968) 
N=C(N)NOCC[C@H](N)C(=O)O

>  <standardized_failed>  (1968) 
False

$$$$

     RDKit          2D

 11 11  0  0  0  0  0  0  0  0999 V2000
    5.5917   -3.9750    0.0000 N   0  0  0  0  0  0  0  0  0  0  0  0
    5.6542   -3.1542    0.0000 C   0  0  0  0  0  0  0  0  0  0  0  0
    6.2125   -4.5167    0.0000 C   0  0  0  0  0  0  0  0  0  0  0  0
    6.3542   -2.7375    0.0000 C   0  0  0  0  0  0  0  0  0  0  0  0
    6.9917   -4.2417    0.0000 O   0  0  0  0  0  0  0  0  0  0  0  0
    6.3542   -1.8792    0.0000 O   0  0  0  0  0  0  0  0  0  0  0  0
    4.7917   -4.1500    0.0000 C   0  0  0  0  0  0  0  0  0  0  0  0
    7.0792   -3.1417    0.0000 O   0  0  0  0  0  0  0  0  0  0  0  0
    4.9042   -2.8292    0.0000 C   0  0  0  0  0  0  0  0  0  0  0  0
    6.0542   -5.3167    0.0000 C   0  0  0  0  0  0  0  0  0  0  0  0
    4.3667   -3.4375    0.0000 C   0  0  0  0  0  0  0  0  0  0  0  0
  2  1  1  0
  3  1  1  0
  2  4  1  0
  5  3  2  0
  6  4  2  0
  7  1  1  0
  8  4  1  0
  9  2  1  0
 10  3  1  0
 11  7  1  0
  9 11  1  0
M  END
>  <ID>  (1969) 


>  <MOLENAME>  (1969) 
N-ACETYLPROLINE

>  <therap>  (1969) 
antirheumatic

>  <ref>  (1969) 
nan

>  <cas#>  (1969) 
nan

>  <source>  (1969) 
synthetic

>  <status>  (1969) 
experimental

>  <tradename>  (1969) 
nan

>  <SMILES>  (1969) 
CC(=O)N1CCCC1C(=O)O

>  <standardized_failed>  (1969) 
False

$$$$

     RDKit          2D

 21 24  0  0  0  0  0  0  0  0999 V2000
    4.7500   -2.8000    0.0000 C   0  0  0  0  0  0  0  0  0  0  0  0
    4.7500   -1.9667    0.0000 C   0  0  0  0  0  0  0  0  0  0  0  0
    4.0292   -1.5542    0.0000 C   0  0  0  0  0  0  0  0  0  0  0  0
    3.3167   -2.8000    0.0000 C   0  0  0  0  0  0  0  0  0  0  0  0
    3.3167   -1.9667    0.0000 C   0  0  0  0  0  0  0  0  0  0  0  0
    4.0292   -3.2125    0.0000 C   0  0  0  0  0  0  0  0  0  0  0  0
    2.6042   -3.2125    0.0000 C   0  0  0  0  0  0  0  0  0  0  0  0
    5.5292   -3.0542    0.0000 O   0  0  0  0  0  0  0  0  0  0  0  0
    2.6042   -4.0417    0.0000 C   0  0  0  0  0  0  0  0  0  0  0  0
    4.0292   -4.0417    0.0000 C   0  0  0  0  0  0  0  0  0  0  0  0
    3.3167   -4.4542    0.0000 C   0  0  0  0  0  0  0  0  0  0  0  0
    5.5292   -1.7167    0.0000 C   0  0  0  0  0  0  0  0  0  0  0  0
    4.0250   -0.7292    0.0000 O   0  0  0  0  0  0  0  0  0  0  0  0
    2.6042   -1.5542    0.0000 O   0  0  0  0  0  0  0  0  0  0  0  0
    6.0167   -2.3875    0.0000 C   0  0  0  0  0  0  0  0  0  0  0  0
    1.8917   -4.4542    0.0000 C   0  0  0  0  0  0  0  0  0  0  0  0
    1.8917   -2.8000    0.0000 C   0  0  0  0  0  0  0  0  0  0  0  0
    1.1750   -3.2125    0.0000 C   0  0  0  0  0  0  0  0  0  0  0  0
    1.1750   -4.0417    0.0000 C   0  0  0  0  0  0  0  0  0  0  0  0
    5.7875   -0.9292    0.0000 C   0  0  0  0  0  0  0  0  0  0  0  0
    1.8917   -5.2792    0.0000 C   0  0  0  0  0  0  0  0  0  0  0  0
  2  1  2  0
  3  2  1  0
  4  6  2  0
  5  4  1  0
  6  1  1  0
  7  4  1  0
  8  1  1  0
  9 11  1  0
 10  6  1  0
 11 10  2  0
 12  2  1  0
 13  3  2  0
 14  5  2  0
 15  8  1  0
 16  9  2  0
 17  7  2  0
 18 17  1  0
 19 16  1  0
 20 12  1  0
 21 16  1  0
 12 15  1  0
  5  3  1  0
  9  7  1  0
 19 18  2  0
M  END
>  <ID>  (1970) 


>  <MOLENAME>  (1970) 
DIHYDROTANSHINONE I

>  <therap>  (1970) 
nan

>  <ref>  (1970) 
Acta Chim Sin36:199 (1978); J Org Chem 55:3537 (1990)

>  <cas#>  (1970) 
nan

>  <source>  (1970) 
Salvia miltiorrhiza

>  <status>  (1970) 
undetermined activity

>  <tradename>  (1970) 
nan

>  <SMILES>  (1970) 
Cc1c2ccc3c(C(=O)C(=O)C4=C3OCC4C)c2ccc1

>  <standardized_failed>  (1970) 
False

$$$$

     RDKit          2D

 16 15  0  0  0  0  0  0  0  0999 V2000
    4.6792   -2.7292    0.0000 C   0  0  0  0  0  0  0  0  0  0  0  0
    1.8292   -2.7375    0.0000 C   0  0  0  0  0  0  0  0  0  0  0  0
    7.5292   -2.7167    0.0000 C   0  0  0  0  0  0  0  0  0  0  0  0
    2.5417   -3.1417    0.0000 C   0  0  0  0  0  0  0  0  0  0  0  0
    5.3917   -3.1375    0.0000 C   0  0  0  0  0  0  0  0  0  0  0  0
    8.2417   -3.1292    0.0000 C   0  0  0  0  0  0  0  0  0  0  0  0
    3.2542   -2.7292    0.0000 C   0  0  0  0  0  0  0  0  0  0  0  0
    6.1042   -2.7250    0.0000 C   0  0  0  0  0  0  0  0  0  0  0  0
    9.6667   -3.1250    0.0000 O   0  0  0  0  0  0  0  0  0  0  0  0
    6.8167   -3.1292    0.0000 C   0  0  0  0  0  0  0  0  0  0  0  0
    3.9667   -3.1417    0.0000 C   0  0  0  0  0  0  0  0  0  0  0  0
    8.9542   -2.7167    0.0000 C   0  0  0  0  0  0  0  0  0  0  0  0
    1.8250   -1.9125    0.0000 C   0  0  0  0  0  0  0  0  0  0  0  0
    1.1167   -3.1500    0.0000 C   0  0  0  0  0  0  0  0  0  0  0  0
    7.5250   -1.8917    0.0000 C   0  0  0  0  0  0  0  0  0  0  0  0
    4.6750   -1.9042    0.0000 C   0  0  0  0  0  0  0  0  0  0  0  0
  2  4  2  0
  3 10  1  0
  4  7  1  0
  5  1  2  0
  6  3  2  0
  7 11  1  0
  8  5  1  0
  9 12  1  0
 10  8  1  0
 11  1  1  0
 12  6  1  0
 13  2  1  0
 14  2  1  0
 15  3  1  0
 16  1  1  0
M  END
>  <ID>  (1971) 


>  <MOLENAME>  (1971) 
FARNESOL

>  <therap>  (1971) 
nan

>  <ref>  (1971) 
J Org Chem 28:1086 (1963)

>  <cas#>  (1971) 
4602-84-0

>  <source>  (1971) 
major component in oil of Hibiscus abelmoschus

>  <status>  (1971) 
undetermined activity

>  <tradename>  (1971) 
nan

>  <SMILES>  (1971) 
CC(C)=CCC/C(C)=C/CC/C(C)=C/CO

>  <standardized_failed>  (1971) 
False

$$$$

     RDKit          2D

 11 10  0  0  0  0  0  0  0  0999 V2000
    3.5000   -3.9042    0.0000 C   0  0  0  0  0  0  0  0  0  0  0  0
    6.3625   -3.8917    0.0000 C   0  0  0  0  0  0  0  0  0  0  0  0
    4.2042   -4.3167    0.0000 C   0  0  0  0  0  0  0  0  0  0  0  0
    7.0750   -4.3042    0.0000 C   0  0  0  0  0  0  0  0  0  0  0  0
    4.9292   -3.9000    0.0000 C   0  0  0  0  0  0  0  0  0  0  0  0
    8.5042   -4.3042    0.0000 O   0  0  0  0  0  0  0  0  0  0  0  0
    5.6417   -4.3125    0.0000 C   0  0  0  0  0  0  0  0  0  0  0  0
    7.7917   -3.8917    0.0000 C   0  0  0  0  0  0  0  0  0  0  0  0
    3.4917   -3.0792    0.0000 C   0  0  0  0  0  0  0  0  0  0  0  0
    2.7792   -4.3167    0.0000 C   0  0  0  0  0  0  0  0  0  0  0  0
    6.3542   -3.0750    0.0000 C   0  0  0  0  0  0  0  0  0  0  0  0
  2  7  1  0
  3  1  2  0
  4  2  2  0
  5  3  1  0
  6  8  1  0
  7  5  1  0
  8  4  1  0
  9  1  1  0
 10  1  1  0
 11  2  1  0
M  END
>  <ID>  (1972) 


>  <MOLENAME>  (1972) 
NEROL

>  <therap>  (1972) 
weak estrogen receptor blocker

>  <ref>  (1972) 
J Pharm Pharmacol 54:1521 (2002)

>  <cas#>  (1972) 
106-25-2

>  <source>  (1972) 
neroli and bergamot oils

>  <status>  (1972) 
experimental

>  <tradename>  (1972) 
nan

>  <SMILES>  (1972) 
CC(C)=CCC/C(C)=C/CO

>  <standardized_failed>  (1972) 
False

$$$$

     RDKit          2D

 12 12  0  0  0  0  0  0  0  0999 V2000
    7.5500   -7.4042    0.0000 C   0  0  0  0  0  0  0  0  0  0  0  0
    8.3292   -7.6917    0.0000 C   0  0  0  0  0  0  0  0  0  0  0  0
    6.9167   -7.9292    0.0000 C   0  0  0  0  0  0  0  0  0  0  0  0
    5.2167   -6.5542    0.0000 C   0  0  0  0  0  0  0  0  0  0  0  0
    6.0042   -6.8375    0.0000 C   0  0  0  0  0  0  0  0  0  0  0  0
    7.4042   -6.5917    0.0000 C   0  0  0  0  0  0  0  0  0  0  0  0
    6.1500   -7.6417    0.0000 C   0  0  0  0  0  0  0  0  0  0  0  0
    8.9542   -7.1667    0.0000 O   0  0  0  0  0  0  0  0  0  0  0  0
    6.6375   -6.3042    0.0000 C   0  0  0  0  0  0  0  0  0  0  0  0
    5.0667   -5.7375    0.0000 C   0  0  0  0  0  0  0  0  0  0  0  0
    8.4667   -8.5042    0.0000 O   0  0  0  0  0  0  0  0  0  0  0  0
    4.5917   -7.0917    0.0000 C   0  0  0  0  0  0  0  0  0  0  0  0
  2  1  1  0
  3  1  2  0
  5  4  1  6
  5  9  1  0
  6  1  1  0
  7  3  1  0
  8  2  2  0
  9  6  1  0
 10  4  2  0
 11  2  1  0
 12  4  1  0
  5  7  1  0
M  END
>  <ID>  (1973) 


>  <MOLENAME>  (1973) 
PERILLIC ACID (-)

>  <therap>  (1973) 
inhibits posttranslational cys isoprenylation, blocks G-protein

>  <ref>  (1973) 
J Am Chem Soc 72: 2381 (1950); Experientia  26: 473 (1970); J Agric Food Chem 24: 377 (1976)

>  <cas#>  (1973) 
7694-45-3

>  <source>  (1973) 
Salvia dorisiana

>  <status>  (1973) 
experimental

>  <tradename>  (1973) 
nan

>  <SMILES>  (1973) 
C=C(C)[C@H]1CC=C(C(=O)O)CC1

>  <standardized_failed>  (1973) 
False

$$$$

     RDKit          2D

 63 69  0  0  0  0  0  0  0  0999 V2000
    8.7167   -3.4917    0.0000 C   0  0  0  0  0  0  0  0  0  0  0  0
    7.9000   -3.6292    0.0000 C   0  0  0  0  0  0  0  0  0  0  0  0
    7.6042   -4.3917    0.0000 C   0  0  0  0  0  0  0  0  0  0  0  0
    9.1625   -2.7917    0.0000 C   0  0  0  0  0  0  0  0  0  0  0  0
   10.1292    0.1958    0.0000 C   0  0  0  0  0  0  0  0  0  0  0  0
    9.2417   -4.1292    0.0000 C   0  0  0  0  0  0  0  0  0  0  0  0
    8.9417   -4.8917    0.0000 C   0  0  0  0  0  0  0  0  0  0  0  0
    6.7917   -4.3542    0.0000 O   0  0  0  0  0  0  0  0  0  0  0  0
    7.2542   -3.1167    0.0000 C   0  0  0  0  0  0  0  0  0  0  0  0
    2.9542   -0.6167    0.0000 C   0  0  0  0  0  0  0  0  0  0  0  0
   10.8417   -0.2167    0.0000 O   0  0  0  0  0  0  0  0  0  0  0  0
    8.1292   -5.0292    0.0000 C   0  0  0  0  0  0  0  0  0  0  0  0
    1.5125   -0.6167    0.0000 C   0  0  0  0  0  0  0  0  0  0  0  0
    4.3917    0.2083    0.0000 C   0  0  0  0  0  0  0  0  0  0  0  0
    9.4167   -1.8667    0.0000 O   0  0  0  0  0  0  0  0  0  0  0  0
    4.3875   -0.6167    0.0000 O   0  0  0  0  0  0  0  0  0  0  0  0
    0.8000   -1.0292    0.0000 O   0  0  0  0  0  0  0  0  0  0  0  0
    3.6792    0.6208    0.0000 C   0  0  0  0  0  0  0  0  0  0  0  0
    1.5125    0.0083    0.0000 C   0  0  0  0  0  0  0  0  0  0  0  0
    2.9625    0.2083    0.0000 C   0  0  0  0  0  0  0  0  0  0  0  0
    0.0792    0.0083    0.0000 C   0  0  0  0  0  0  0  0  0  0  0  0
    5.8292    0.1958    0.0000 C   0  0  0  0  0  0  0  0  0  0  0  0
   10.1292   -0.6292    0.0000 C   0  0  0  0  0  0  0  0  0  0  0  0
    9.4167    0.6083    0.0000 O   0  0  0  0  0  0  0  0  0  0  0  0
    3.6750   -1.0292    0.0000 C   0  0  0  0  0  0  0  0  0  0  0  0
   11.5542    0.1958    0.0000 C   0  0  0  0  0  0  0  0  0  0  0  0
    0.8000    0.4208    0.0000 C   0  0  0  0  0  0  0  0  0  0  0  0
    9.4167   -1.0417    0.0000 C   0  0  0  0  0  0  0  0  0  0  0  0
    0.0792   -0.6167    0.0000 C   0  0  0  0  0  0  0  0  0  0  0  0
    6.5500    0.6083    0.0000 C   0  0  0  0  0  0  0  0  0  0  0  0
    2.2292   -1.0292    0.0000 O   0  0  0  0  0  0  0  0  0  0  0  0
   10.1292    1.0333    0.0000 C   0  0  0  0  0  0  0  0  0  0  0  0
    5.1125    0.6208    0.0000 O   0  0  0  0  0  0  0  0  0  0  0  0
   10.8417    1.4458    0.0000 C   0  0  0  0  0  0  0  0  0  0  0  0
    7.2667    0.1958    0.0000 C   0  0  0  0  0  0  0  0  0  0  0  0
    6.5750   -3.5667    0.0000 C   0  0  0  0  0  0  0  0  0  0  0  0
    7.2542   -2.2792    0.0000 C   0  0  0  0  0  0  0  0  0  0  0  0
    9.6875   -3.4417    0.0000 O   0  0  0  0  0  0  0  0  0  0  0  0
    6.5417   -1.8792    0.0000 C   0  0  0  0  0  0  0  0  0  0  0  0
   11.5542    1.0333    0.0000 C   0  0  0  0  0  0  0  0  0  0  0  0
    8.7000   -0.6292    0.0000 C   0  0  0  0  0  0  0  0  0  0  0  0
    8.7000    0.1958    0.0000 C   0  0  0  0  0  0  0  0  0  0  0  0
    5.8292   -0.6292    0.0000 C   0  0  0  0  0  0  0  0  0  0  0  0
    6.5417   -1.0417    0.0000 C   0  0  0  0  0  0  0  0  0  0  0  0
    7.9042   -2.8042    0.0000 O   0  0  0  0  0  0  0  0  0  0  0  0
    7.9792    0.6083    0.0000 C   0  0  0  0  0  0  0  0  0  0  0  0
   12.2792   -0.2167    0.0000 C   0  0  0  0  0  0  0  0  0  0  0  0
   -0.7125    0.2333    0.0000 O   0  0  0  0  0  0  0  0  0  0  0  0
    7.8417   -5.8167    0.0000 O   0  0  0  0  0  0  0  0  0  0  0  0
    2.2417    0.6208    0.0000 O   0  0  0  0  0  0  0  0  0  0  0  0
    0.8000    1.2458    0.0000 O   0  0  0  0  0  0  0  0  0  0  0  0
    9.4667   -5.5417    0.0000 C   0  0  0  0  0  0  0  0  0  0  0  0
    6.5500    1.4333    0.0000 C   0  0  0  0  0  0  0  0  0  0  0  0
    3.6750   -1.8542    0.0000 C   0  0  0  0  0  0  0  0  0  0  0  0
   -0.7125   -0.8542    0.0000 C   0  0  0  0  0  0  0  0  0  0  0  0
   12.2792    1.4458    0.0000 C   0  0  0  0  0  0  0  0  0  0  0  0
    5.1125   -1.0542    0.0000 C   0  0  0  0  0  0  0  0  0  0  0  0
   12.2750   -1.0542    0.0000 C   0  0  0  0  0  0  0  0  0  0  0  0
   12.9917    0.1958    0.0000 C   0  0  0  0  0  0  0  0  0  0  0  0
    7.0250   -5.9542    0.0000 C   0  0  0  0  0  0  0  0  0  0  0  0
    2.2542    1.5458    0.0000 C   0  0  0  0  0  0  0  0  0  0  0  0
   -0.0250    1.7083    0.0000 C   0  0  0  0  0  0  0  0  0  0  0  0
   11.5625   -1.4667    0.0000 C   0  0  0  0  0  0  0  0  0  0  0  0
  2  1  1  0
  3  2  1  0
  1  4  1  0
  5 23  1  1
  1  6  1  6
  7  6  2  0
  3  8  1  1
  9  2  1  0
 10 20  1  0
  5 11  1  0
 12  7  1  0
 13 31  1  6
 33 14  1  0
 15  4  1  0
 16 14  1  0
 17 13  1  0
 18 14  1  0
 19 13  1  0
 20 18  1  0
 21 27  1  0
 22 43  1  0
 28 23  1  1
 24 42  1  0
 25 16  1  0
 26 11  1  0
 27 19  1  0
 28 15  1  0
 29 17  1  0
 30 35  2  0
 31 10  1  0
  5 32  1  0
 22 33  1  6
 34 32  2  0
 35 46  1  0
 36  9  1  0
 37  9  2  0
 38  4  2  0
 39 37  1  0
 40 34  1  0
 41 28  1  0
 42 41  1  0
 43 44  1  0
 44 39  2  0
  2 45  1  6
 42 46  1  1
 26 47  1  1
 21 48  1  6
 12 49  1  1
 20 50  1  1
 27 51  1  1
 52  7  1  0
 53 30  1  0
 25 54  1  1
 29 55  1  1
 40 56  1  6
 43 57  1  6
 58 47  1  0
 59 47  1  0
 60 49  1  0
 61 50  1  0
 62 51  1  0
 63 58  1  0
  3 12  1  0
  8 36  1  0
 24  5  1  0
 30 22  1  0
 40 26  1  0
 10 25  1  0
 21 29  1  0
M  END
>  <ID>  (1974) 


>  <MOLENAME>  (1974) 
AVERMECTIN A1a

>  <therap>  (1974) 
antiparasitic

>  <ref>  (1974) 
Experientia 37:963 (1981); JACS 103:4216 (1981)

>  <cas#>  (1974) 
nan

>  <source>  (1974) 
Streptomyces avermitilis

>  <status>  (1974) 
experimental

>  <tradename>  (1974) 
nan

>  <SMILES>  (1974) 
CCC(C)[C@H]1O[C@]2(C=C[C@@H]1C)C[C@@H]1C[C@@H](C/C=C(\C)[C@@H](OC3C[C@H](OC)C(O[C@H]4C[C@H](OC)[C@@H](O)[C@H](C)O4)[C@H](C)O3)[C@@H](C)/C=C/C=C3\CO[C@@H]4[C@H](OC)C(C)=C[C@@H](C(=O)O1)[C@]34O)O2

>  <standardized_failed>  (1974) 
False

$$$$

     RDKit          2D

 28 30  0  0  0  0  0  0  0  0999 V2000
   -1.5792   -1.7083    0.0000 C   0  0  0  0  0  0  0  0  0  0  0  0
   -2.2958   -2.1208    0.0000 C   0  0  0  0  0  0  0  0  0  0  0  0
   -3.0125   -1.7042    0.0000 C   0  0  0  0  0  0  0  0  0  0  0  0
   -1.5792   -0.8833    0.0000 O   0  0  0  0  0  0  0  0  0  0  0  0
   -3.0083   -0.8833    0.0000 C   0  0  0  0  0  0  0  0  0  0  0  0
   -2.2958   -0.4708    0.0000 C   0  0  0  0  0  0  0  0  0  0  0  0
   -0.8708   -2.1208    0.0000 O   0  0  0  0  0  0  0  0  0  0  0  0
   -0.1583   -2.5292    0.0000 C   0  0  0  0  0  0  0  0  0  0  0  0
    1.9792   -2.1125    0.0000 C   0  0  0  0  0  0  0  0  0  0  0  0
    2.6958   -2.5250    0.0000 C   0  0  0  0  0  0  0  0  0  0  0  0
   -0.1583   -3.3583    0.0000 C   0  0  0  0  0  0  0  0  0  0  0  0
    1.2708   -2.5292    0.0000 C   0  0  0  0  0  0  0  0  0  0  0  0
    0.5542   -3.7708    0.0000 C   0  0  0  0  0  0  0  0  0  0  0  0
   -2.2958   -2.9458    0.0000 O   0  0  0  0  0  0  0  0  0  0  0  0
    0.5542   -2.1167    0.0000 C   0  0  0  0  0  0  0  0  0  0  0  0
   -3.7292   -2.1167    0.0000 O   0  0  0  0  0  0  0  0  0  0  0  0
   -3.7250   -0.4708    0.0000 O   0  0  0  0  0  0  0  0  0  0  0  0
    3.4083   -2.1083    0.0000 C   0  0  0  0  0  0  0  0  0  0  0  0
    1.2708   -3.3583    0.0000 C   0  0  0  0  0  0  0  0  0  0  0  0
    4.8250   -1.2750    0.0000 C   0  0  0  0  0  0  0  0  0  0  0  0
   -2.2917    0.3542    0.0000 C   0  0  0  0  0  0  0  0  0  0  0  0
    0.5542   -4.5958    0.0000 O   0  0  0  0  0  0  0  0  0  0  0  0
    4.1208   -2.5167    0.0000 C   0  0  0  0  0  0  0  0  0  0  0  0
    3.4042   -1.2833    0.0000 C   0  0  0  0  0  0  0  0  0  0  0  0
    4.8333   -2.1042    0.0000 C   0  0  0  0  0  0  0  0  0  0  0  0
    4.1125   -0.8708    0.0000 C   0  0  0  0  0  0  0  0  0  0  0  0
    5.5375   -0.8583    0.0000 O   0  0  0  0  0  0  0  0  0  0  0  0
   -3.0708    0.6333    0.0000 O   0  0  0  0  0  0  0  0  0  0  0  0
  2  1  1  0
  3  2  1  0
  4  1  1  0
  5  3  1  0
  6  4  1  0
  1  7  1  6
  8  7  1  0
  9 12  1  0
 10  9  2  0
 11  8  2  0
 12 15  2  0
 13 11  1  0
  2 14  1  6
 15  8  1  0
  3 16  1  1
  5 17  1  6
 18 10  1  0
 19 13  2  0
 20 25  2  0
  6 21  1  1
 22 13  1  0
 23 18  2  0
 24 18  1  0
 25 23  1  0
 26 24  2  0
 27 20  1  0
 28 21  1  0
  6  5  1  0
 12 19  1  0
 26 20  1  0
M  END
>  <ID>  (1975) 


>  <MOLENAME>  (1975) 
PICEID

>  <therap>  (1975) 
antioxidant

>  <ref>  (1975) 
J Agric Food Chem. 47:1533 (1999); 52:5396 (2004)

>  <cas#>  (1975) 
27208-80-6

>  <source>  (1975) 
Polygonum cuspidatum, grapes; polydatin

>  <status>  (1975) 
experimental

>  <tradename>  (1975) 
nan

>  <SMILES>  (1975) 
OC[C@H]1O[C@H](Oc2cc(O)cc(/C=C/c3ccc(O)cc3)c2)[C@H](O)[C@@H](O)[C@@H]1O

>  <standardized_failed>  (1975) 
False

$$$$

     RDKit          2D

 16 15  0  0  0  0  0  0  0  0999 V2000
    1.1375   -3.4042    0.0000 C   0  0  0  0  0  0  0  0  0  0  0  0
    1.8542   -2.9917    0.0000 C   0  0  0  0  0  0  0  0  0  0  0  0
    4.3417   -4.4250    0.0000 C   0  0  0  0  0  0  0  0  0  0  0  0
    6.8250   -5.8500    0.0000 C   0  0  0  0  0  0  0  0  0  0  0  0
    5.9917   -5.8500    0.0000 C   0  0  0  0  0  0  0  0  0  0  0  0
    3.5125   -4.4250    0.0000 C   0  0  0  0  0  0  0  0  0  0  0  0
    0.4250   -2.9917    0.0000 C   0  0  0  0  0  0  0  0  0  0  0  0
    2.5750   -2.5750    0.0000 O   0  0  0  0  0  0  0  0  0  0  0  0
    5.5792   -5.1375    0.0000 C   0  0  0  0  0  0  0  0  0  0  0  0
    3.1000   -3.7125    0.0000 C   0  0  0  0  0  0  0  0  0  0  0  0
    4.7542   -5.1375    0.0000 C   0  0  0  0  0  0  0  0  0  0  0  0
    2.2667   -3.7125    0.0000 C   0  0  0  0  0  0  0  0  0  0  0  0
    7.2375   -6.5625    0.0000 C   0  0  0  0  0  0  0  0  0  0  0  0
    7.2375   -5.1292    0.0000 C   0  0  0  0  0  0  0  0  0  0  0  0
    4.7542   -3.7042    0.0000 C   0  0  0  0  0  0  0  0  0  0  0  0
    1.4375   -2.2667    0.0000 C   0  0  0  0  0  0  0  0  0  0  0  0
  2  1  1  0
  3  6  2  0
  4  5  2  0
  5  9  1  0
  6 10  1  0
  7  1  2  0
  8  2  1  0
  9 11  1  0
 10 12  1  0
 11  3  1  0
 12  2  1  0
 13  4  1  0
 14  4  1  0
 15  3  1  0
 16  2  1  0
M  END
>  <ID>  (1976) 


>  <MOLENAME>  (1976) 
NEROLIDOL

>  <therap>  (1976) 
nan

>  <ref>  (1976) 
Tet Lett 1966:3731; J Chem Soc (C) 1968:93; Food Cosmet Toxicol 13:887 (1975)

>  <cas#>  (1976) 
7212-44-4

>  <source>  (1976) 
common in essential oils of flowers

>  <status>  (1976) 
undetermined activity

>  <tradename>  (1976) 
nan

>  <SMILES>  (1976) 
C=CC(C)(O)CC/C=C(\C)CCC=C(C)C

>  <standardized_failed>  (1976) 
False

$$$$

     RDKit          2D

 38 39  0  0  0  0  0  0  0  0999 V2000
    1.0542   -4.7167    0.0000 C   0  0  0  0  0  0  0  0  0  0  0  0
    1.6792   -4.1792    0.0000 C   0  0  0  0  0  0  0  0  0  0  0  0
    2.1042   -6.5167    0.0000 C   0  0  0  0  0  0  0  0  0  0  0  0
   -0.3750   -4.7167    0.0000 C   0  0  0  0  0  0  0  0  0  0  0  0
   -1.0958   -4.3042    0.0000 C   0  0  0  0  0  0  0  0  0  0  0  0
    2.8875   -6.2375    0.0000 C   0  0  0  0  0  0  0  0  0  0  0  0
    0.3375   -4.3042    0.0000 N   0  0  0  0  0  0  0  0  0  0  0  0
    1.3250   -6.2375    0.0000 O   0  0  0  0  0  0  0  0  0  0  0  0
    2.5042   -4.1792    0.0000 O   0  0  0  0  0  0  0  0  0  0  0  0
    3.2750   -5.5167    0.0000 C   0  0  0  0  0  0  0  0  0  0  0  0
   -1.0958   -3.4875    0.0000 C   0  0  0  0  0  0  0  0  0  0  0  0
    0.9125   -5.5292    0.0000 C   0  0  0  0  0  0  0  0  0  0  0  0
    3.1292   -4.7042    0.0000 C   0  0  0  0  0  0  0  0  0  0  0  0
    4.8000   -5.2375    0.0000 C   0  0  0  0  0  0  0  0  0  0  0  0
    4.0875   -5.6500    0.0000 O   0  0  0  0  0  0  0  0  0  0  0  0
    1.3917   -3.4042    0.0000 O   0  0  0  0  0  0  0  0  0  0  0  0
    2.1042   -7.3417    0.0000 O   0  0  0  0  0  0  0  0  0  0  0  0
   -0.3750   -5.5417    0.0000 O   0  0  0  0  0  0  0  0  0  0  0  0
   -1.8083   -3.0750    0.0000 C   0  0  0  0  0  0  0  0  0  0  0  0
   -1.0958   -1.8375    0.0000 C   0  0  0  0  0  0  0  0  0  0  0  0
    4.7917   -4.4125    0.0000 O   0  0  0  0  0  0  0  0  0  0  0  0
   -1.1000   -1.0125    0.0000 O   0  0  0  0  0  0  0  0  0  0  0  0
   -1.8083   -2.2500    0.0000 N   0  0  0  0  0  0  0  0  0  0  0  0
    5.5125   -5.6500    0.0000 C   0  0  0  0  0  0  0  0  0  0  0  0
   -0.3833   -3.0750    0.0000 O   0  0  0  0  0  0  0  0  0  0  0  0
   -1.8000   -4.7292    0.0000 C   0  0  0  0  0  0  0  0  0  0  0  0
    3.3000   -6.9500    0.0000 C   0  0  0  0  0  0  0  0  0  0  0  0
    0.1000   -5.6667    0.0000 C   0  0  0  0  0  0  0  0  0  0  0  0
    3.8417   -4.2917    0.0000 C   0  0  0  0  0  0  0  0  0  0  0  0
   -2.5208   -4.3167    0.0000 C   0  0  0  0  0  0  0  0  0  0  0  0
   -2.5208   -3.4917    0.0000 C   0  0  0  0  0  0  0  0  0  0  0  0
    6.2250   -5.2375    0.0000 C   0  0  0  0  0  0  0  0  0  0  0  0
    4.1167   -6.9500    0.0000 C   0  0  0  0  0  0  0  0  0  0  0  0
    5.3542   -7.6625    0.0000 C   0  0  0  0  0  0  0  0  0  0  0  0
    4.5292   -7.6625    0.0000 C   0  0  0  0  0  0  0  0  0  0  0  0
    6.9375   -5.6500    0.0000 C   0  0  0  0  0  0  0  0  0  0  0  0
    6.2250   -4.4125    0.0000 C   0  0  0  0  0  0  0  0  0  0  0  0
    5.7667   -8.3750    0.0000 C   0  0  0  0  0  0  0  0  0  0  0  0
  2  1  1  0
  3  8  1  0
  4  7  1  0
  5  4  1  0
  6  3  1  0
  1  7  1  6
  8 12  1  0
  9  2  1  0
 10 13  1  0
 11  5  2  0
 12  1  1  0
 13  9  1  0
 14 15  1  0
 10 15  1  6
 16  2  2  0
 17  3  2  0
 18  4  2  0
 19 11  1  0
 20 23  1  0
 21 14  2  0
 22 20  2  0
 23 19  1  0
 24 14  1  0
 25 11  1  0
 26  5  1  0
  6 27  1  1
 12 28  1  6
 13 29  1  1
 30 26  2  0
 31 30  1  0
 32 24  1  0
 33 27  1  0
 34 35  1  0
 35 33  1  0
 36 32  1  0
 37 32  1  0
 38 34  1  0
 10  6  1  0
 19 31  2  0
M  END
>  <ID>  (1977) 


>  <MOLENAME>  (1977) 
ANTIMYCIN A (A1 shown)

>  <therap>  (1977) 
antifungal, antiviral, interferes in cytochrome oxidation

>  <ref>  (1977) 
nan

>  <cas#>  (1977) 
1397-94-0

>  <source>  (1977) 
Streptomyces spp

>  <status>  (1977) 
experimental

>  <tradename>  (1977) 
nan

>  <SMILES>  (1977) 
CCCCC[C@H]1C(=O)O[C@H](C)[C@H](NC(=O)c2c(O)c(NC=O)ccc2)C(=O)O[C@@H](C)[C@@H]1OC(=O)CC(C)C

>  <standardized_failed>  (1977) 
False

$$$$

     RDKit          2D

 26 30  0  0  0  0  0  0  0  0999 V2000
    5.8125   -2.3417    0.0000 N   0  0  0  0  0  0  0  0  0  0  0  0
    6.9542   -3.1792    0.0000 C   0  0  0  0  0  0  0  0  0  0  0  0
    5.3250   -3.0042    0.0000 C   0  0  0  0  0  0  0  0  0  0  0  0
    6.4667   -3.8417    0.0000 C   0  0  0  0  0  0  0  0  0  0  0  0
    6.6250   -2.4292    0.0000 C   0  0  0  0  0  0  0  0  0  0  0  0
    4.5375   -2.7542    0.0000 C   0  0  0  0  0  0  0  0  0  0  0  0
    5.6542   -3.7542    0.0000 C   0  0  0  0  0  0  0  0  0  0  0  0
    4.5375   -1.9292    0.0000 C   0  0  0  0  0  0  0  0  0  0  0  0
    6.7917   -4.5875    0.0000 C   0  0  0  0  0  0  0  0  0  0  0  0
    3.8167   -3.1750    0.0000 N   0  0  0  0  0  0  0  0  0  0  0  0
    5.3250   -1.6792    0.0000 C   0  0  0  0  0  0  0  0  0  0  0  0
    7.6042   -4.6792    0.0000 C   0  0  0  0  0  0  0  0  0  0  0  0
    7.7667   -3.2667    0.0000 C   0  0  0  0  0  0  0  0  0  0  0  0
    8.0917   -4.0250    0.0000 O   0  0  0  0  0  0  0  0  0  0  0  0
    3.8167   -1.5167    0.0000 C   0  0  0  0  0  0  0  0  0  0  0  0
    3.1042   -2.7542    0.0000 C   0  0  0  0  0  0  0  0  0  0  0  0
    7.1125   -1.7625    0.0000 O   0  0  0  0  0  0  0  0  0  0  0  0
    3.1042   -1.9292    0.0000 C   0  0  0  0  0  0  0  0  0  0  0  0
    7.9375   -5.4375    0.0000 O   0  0  0  0  0  0  0  0  0  0  0  0
    6.7917   -5.4125    0.0000 O   0  0  0  0  0  0  0  0  0  0  0  0
    5.9667   -4.5792    0.0000 C   0  0  0  0  0  0  0  0  0  0  0  0
    2.3917   -3.1750    0.0000 C   0  0  0  0  0  0  0  0  0  0  0  0
    2.3917   -1.5167    0.0000 C   0  0  0  0  0  0  0  0  0  0  0  0
    5.5500   -5.2917    0.0000 C   0  0  0  0  0  0  0  0  0  0  0  0
    1.6792   -1.9375    0.0000 C   0  0  0  0  0  0  0  0  0  0  0  0
    1.6792   -2.7625    0.0000 C   0  0  0  0  0  0  0  0  0  0  0  0
  2  5  1  0
  3  1  1  0
  4  2  2  0
  5  1  1  0
  6  3  1  0
  7  3  2  0
  8 11  1  0
  9  4  1  0
 10  6  2  0
 11  1  1  0
 12 14  1  0
 13  2  1  0
 14 13  1  0
 15  8  2  0
 16 10  1  0
 17  5  2  0
 18 15  1  0
 19 12  2  0
  9 20  1  1
  9 21  1  0
 22 16  2  0
 23 18  2  0
 24 21  1  0
 25 23  1  0
 26 22  1  0
  8  6  1  0
  7  4  1  0
 18 16  1  0
  9 12  1  0
 25 26  2  0
M  END
>  <ID>  (1978) 


>  <MOLENAME>  (1978) 
CAMPTOTHECIN

>  <therap>  (1978) 
antineoplastic

>  <ref>  (1978) 
J Am Chem Soc 88:3888 (1966)

>  <cas#>  (1978) 
7689-03-4

>  <source>  (1978) 
Camptotheca acuminata

>  <status>  (1978) 
experimental

>  <tradename>  (1978) 
nan

>  <SMILES>  (1978) 
CC[C@@]1(O)C(=O)OCc2c1cc1-c3nc4ccccc4cc3Cn1c2=O

>  <standardized_failed>  (1978) 
False

$$$$

     RDKit          2D

 34 38  0  0  0  0  0  0  0  0999 V2000
    4.6042   -1.6125    0.0000 C   0  0  0  0  0  0  0  0  0  0  0  0
    3.8917   -2.0167    0.0000 C   0  0  0  0  0  0  0  0  0  0  0  0
    2.4667   -2.0167    0.0000 C   0  0  0  0  0  0  0  0  0  0  0  0
    4.6167   -0.7833    0.0000 C   0  0  0  0  0  0  0  0  0  0  0  0
    3.1792   -1.6000    0.0000 C   0  0  0  0  0  0  0  0  0  0  0  0
    2.4708   -2.8417    0.0000 C   0  0  0  0  0  0  0  0  0  0  0  0
    5.3333   -0.3750    0.0000 C   0  0  0  0  0  0  0  0  0  0  0  0
    1.7542   -3.2500    0.0000 C   0  0  0  0  0  0  0  0  0  0  0  0
    5.5208    0.4333    0.0000 C   0  0  0  0  0  0  0  0  0  0  0  0
    6.0458   -0.8000    0.0000 C   0  0  0  0  0  0  0  0  0  0  0  0
    1.0417   -2.8417    0.0000 C   0  0  0  0  0  0  0  0  0  0  0  0
    3.8958   -2.8375    0.0000 C   0  0  0  0  0  0  0  0  0  0  0  0
    5.3167   -2.0333    0.0000 C   0  0  0  0  0  0  0  0  0  0  0  0
    3.9000   -0.3625    0.0000 C   0  0  0  0  0  0  0  0  0  0  0  0
    1.7542   -1.6000    0.0000 C   0  0  0  0  0  0  0  0  0  0  0  0
    3.1792   -0.7708    0.0000 C   0  0  0  0  0  0  0  0  0  0  0  0
    3.1792   -3.2500    0.0000 C   0  0  0  0  0  0  0  0  0  0  0  0
    4.9833    1.0583    0.0000 C   0  0  0  0  0  0  0  0  0  0  0  0
    0.3292   -3.2542    0.0000 O   0  0  0  0  0  0  0  0  0  0  0  0
    6.3500    0.5083    0.0000 C   0  0  0  0  0  0  0  0  0  0  0  0
   -0.3833   -2.8417    0.0000 C   0  0  0  0  0  0  0  0  0  0  0  0
    6.0375   -1.6292    0.0000 C   0  0  0  0  0  0  0  0  0  0  0  0
    6.6750   -0.2583    0.0000 C   0  0  0  0  0  0  0  0  0  0  0  0
    1.0417   -2.0167    0.0000 C   0  0  0  0  0  0  0  0  0  0  0  0
   -0.3875   -2.0167    0.0000 O   0  0  0  0  0  0  0  0  0  0  0  0
    5.2500    1.8375    0.0000 C   0  0  0  0  0  0  0  0  0  0  0  0
    4.6000   -2.4375    0.0000 C   0  0  0  0  0  0  0  0  0  0  0  0
    3.8875   -1.1917    0.0000 C   0  0  0  0  0  0  0  0  0  0  0  0
    2.4625   -1.1917    0.0000 C   0  0  0  0  0  0  0  0  0  0  0  0
    1.3375   -3.9625    0.0000 C   0  0  0  0  0  0  0  0  0  0  0  0
    2.1625   -3.9625    0.0000 C   0  0  0  0  0  0  0  0  0  0  0  0
    6.7542   -1.2125    0.0000 C   0  0  0  0  0  0  0  0  0  0  0  0
    4.1708    0.9000    0.0000 C   0  0  0  0  0  0  0  0  0  0  0  0
   -1.1000   -3.2542    0.0000 C   0  0  0  0  0  0  0  0  0  0  0  0
  2  1  1  0
  3  5  1  0
  4  1  1  0
  5  2  1  0
  6  3  1  0
  7  4  1  0
  8  6  1  0
  9  7  1  0
 10  7  1  0
 11  8  1  0
 12  2  1  0
 13  1  1  0
  4 14  1  1
 15  3  1  0
 16 14  1  0
 17 12  1  0
  9 18  1  6
 11 19  1  1
 20  9  1  0
 21 19  1  0
 22 13  1  0
 23 10  1  0
 24 15  1  0
 25 21  2  0
 26 18  2  0
  1 27  1  6
  2 28  1  1
  3 29  1  1
 30  8  1  0
 31  8  1  0
 10 32  1  1
 33 18  1  0
 34 21  1  0
 10 22  1  0
 16  5  1  0
 17  6  1  0
 20 23  1  0
 11 24  1  0
M  END
>  <ID>  (1979) 


>  <MOLENAME>  (1979) 
LUPEOL ACETATE

>  <therap>  (1979) 
antiulcer

>  <ref>  (1979) 
J Ind Chem Soc 39:749 (1962)

>  <cas#>  (1979) 
1617-68-1

>  <source>  (1979) 
Veronia cinerea

>  <status>  (1979) 
experimental

>  <tradename>  (1979) 
nan

>  <SMILES>  (1979) 
C=C(C)[C@@H]1CC[C@]2(C)CC[C@]3(C)[C@@H](CCC4[C@@]5(C)CC[C@H](OC(C)=O)C(C)(C)C5CC[C@]43C)C12

>  <standardized_failed>  (1979) 
False

$$$$

     RDKit          2D

 19 21  0  0  0  0  0  0  0  0999 V2000
    3.2167   -2.1542    0.0000 C   0  0  0  0  0  0  0  0  0  0  0  0
    2.5042   -1.7375    0.0000 C   0  0  0  0  0  0  0  0  0  0  0  0
    1.7917   -2.1500    0.0000 C   0  0  0  0  0  0  0  0  0  0  0  0
    3.2167   -2.9792    0.0000 C   0  0  0  0  0  0  0  0  0  0  0  0
    1.7875   -2.9750    0.0000 C   0  0  0  0  0  0  0  0  0  0  0  0
    2.5000   -3.3875    0.0000 O   0  0  0  0  0  0  0  0  0  0  0  0
    3.9375   -1.7500    0.0000 C   0  0  0  0  0  0  0  0  0  0  0  0
    1.0792   -1.7292    0.0000 C   0  0  0  0  0  0  0  0  0  0  0  0
    1.0792   -3.3792    0.0000 C   0  0  0  0  0  0  0  0  0  0  0  0
    2.5042   -0.9125    0.0000 O   0  0  0  0  0  0  0  0  0  0  0  0
    3.9375   -0.9250    0.0000 C   0  0  0  0  0  0  0  0  0  0  0  0
    4.6417   -2.1667    0.0000 C   0  0  0  0  0  0  0  0  0  0  0  0
    0.3667   -2.9750    0.0000 C   0  0  0  0  0  0  0  0  0  0  0  0
    0.3667   -2.1500    0.0000 C   0  0  0  0  0  0  0  0  0  0  0  0
    5.3667   -0.9375    0.0000 C   0  0  0  0  0  0  0  0  0  0  0  0
    4.6542   -0.5167    0.0000 C   0  0  0  0  0  0  0  0  0  0  0  0
    5.3625   -1.7625    0.0000 C   0  0  0  0  0  0  0  0  0  0  0  0
   -0.3458   -3.3875    0.0000 O   0  0  0  0  0  0  0  0  0  0  0  0
    6.0875   -0.5292    0.0000 O   0  0  0  0  0  0  0  0  0  0  0  0
  2  1  1  0
  3  2  1  0
  4  1  2  0
  5  6  1  0
  6  4  1  0
  7  1  1  0
  8  3  2  0
  9  5  2  0
 10  2  2  0
 11  7  2  0
 12  7  1  0
 13  9  1  0
 14  8  1  0
 15 17  1  0
 16 11  1  0
 17 12  2  0
 18 13  1  0
 19 15  1  0
 16 15  2  0
  3  5  1  0
 14 13  2  0
M  END
>  <ID>  (1980) 


>  <MOLENAME>  (1980) 
DAIDZEIN

>  <therap>  (1980) 
phytoestrogen

>  <ref>  (1980) 
J Chem Soc 1933:274

>  <cas#>  (1980) 
486-66-8

>  <source>  (1980) 
red clover

>  <status>  (1980) 
experimental

>  <tradename>  (1980) 
nan

>  <SMILES>  (1980) 
O=c1c(-c2ccc(O)cc2)coc2cc(O)ccc12

>  <standardized_failed>  (1980) 
False

$$$$

     RDKit          2D

 23 22  0  0  0  0  0  0  0  0999 V2000
    8.9417   -0.1917    0.0000 C   0  0  0  0  0  0  0  0  0  0  0  0
    9.6542    0.2250    0.0000 C   0  0  0  0  0  0  0  0  0  0  0  0
   -3.1750   -0.6292    0.0000 C   0  0  0  0  0  0  0  0  0  0  0  0
   -3.1750   -1.4542    0.0000 O   0  0  0  0  0  0  0  0  0  0  0  0
   -2.4625   -0.2167    0.0000 O   0  0  0  0  0  0  0  0  0  0  0  0
   -0.3208   -0.6292    0.0000 C   0  0  0  0  0  0  0  0  0  0  0  0
   -1.7458   -0.6292    0.0000 C   0  0  0  0  0  0  0  0  0  0  0  0
   -1.0333   -0.2167    0.0000 C   0  0  0  0  0  0  0  0  0  0  0  0
    0.3917   -0.2167    0.0000 C   0  0  0  0  0  0  0  0  0  0  0  0
    8.2292   -0.6042    0.0000 C   0  0  0  0  0  0  0  0  0  0  0  0
   -1.0375    0.6083    0.0000 O   0  0  0  0  0  0  0  0  0  0  0  0
    0.3875    0.6083    0.0000 O   0  0  0  0  0  0  0  0  0  0  0  0
   -3.8958   -0.2167    0.0000 C   0  0  0  0  0  0  0  0  0  0  0  0
    1.1000   -0.6250    0.0000 C   0  0  0  0  0  0  0  0  0  0  0  0
    7.5167   -0.1917    0.0000 C   0  0  0  0  0  0  0  0  0  0  0  0
    1.8167   -0.2125    0.0000 C   0  0  0  0  0  0  0  0  0  0  0  0
    5.3792   -0.6125    0.0000 C   0  0  0  0  0  0  0  0  0  0  0  0
    6.0917   -0.2000    0.0000 C   0  0  0  0  0  0  0  0  0  0  0  0
    6.8042   -0.6042    0.0000 C   0  0  0  0  0  0  0  0  0  0  0  0
    2.5292   -0.6167    0.0000 C   0  0  0  0  0  0  0  0  0  0  0  0
    3.2417   -0.2042    0.0000 C   0  0  0  0  0  0  0  0  0  0  0  0
    3.9542   -0.6167    0.0000 C   0  0  0  0  0  0  0  0  0  0  0  0
    4.6667   -0.2042    0.0000 C   0  0  0  0  0  0  0  0  0  0  0  0
  2  1  3  0
  3  5  1  0
  4  3  2  0
  5  7  1  0
  6  9  1  0
  7  8  1  0
  8  6  1  0
  9 14  1  0
 10  1  1  0
 11  8  1  0
 12  9  1  0
 13  3  1  0
 14 16  1  0
 15 10  1  0
 16 20  1  0
 17 18  1  0
 18 19  1  0
 19 15  1  0
 20 21  1  0
 21 22  1  0
 22 23  1  0
 23 17  1  0
M  END
>  <ID>  (1981) 


>  <MOLENAME>  (1981) 
AVOCADYNE ACETATE

>  <therap>  (1981) 
antifungal

>  <ref>  (1981) 
Ann Acad Brasil Cienc 42 (suplemento): 45 (1970); Tetrahedron 25: 4617 (1969); Phytochemistry 10: 1417 (1971); 31: 93 (1992)

>  <cas#>  (1981) 
24607-06-5

>  <source>  (1981) 
Persea spp

>  <status>  (1981) 
experimental

>  <tradename>  (1981) 
nan

>  <SMILES>  (1981) 
C#CCCCCCCCCCCCC(O)CC(O)COC(C)=O

>  <standardized_failed>  (1981) 
False

$$$$

     RDKit          2D

 28 31  0  0  0  0  0  0  0  0999 V2000
    4.4000   -3.5042    0.0000 C   0  0  0  0  0  0  0  0  0  0  0  0
    2.9667   -3.5167    0.0000 C   0  0  0  0  0  0  0  0  0  0  0  0
    3.6792   -3.1042    0.0000 C   0  0  0  0  0  0  0  0  0  0  0  0
    4.4042   -4.3417    0.0000 C   0  0  0  0  0  0  0  0  0  0  0  0
    2.2542   -3.1125    0.0000 C   0  0  0  0  0  0  0  0  0  0  0  0
    2.9750   -4.3500    0.0000 C   0  0  0  0  0  0  0  0  0  0  0  0
    1.5417   -3.5292    0.0000 C   0  0  0  0  0  0  0  0  0  0  0  0
    3.6917   -4.7542    0.0000 O   0  0  0  0  0  0  0  0  0  0  0  0
    1.5417   -4.3542    0.0000 C   0  0  0  0  0  0  0  0  0  0  0  0
    0.8292   -3.1167    0.0000 C   0  0  0  0  0  0  0  0  0  0  0  0
    2.2542   -4.7667    0.0000 C   0  0  0  0  0  0  0  0  0  0  0  0
    0.8292   -4.7667    0.0000 O   0  0  0  0  0  0  0  0  0  0  0  0
    5.1042   -3.0917    0.0000 C   0  0  0  0  0  0  0  0  0  0  0  0
    0.1167   -3.5292    0.0000 C   0  0  0  0  0  0  0  0  0  0  0  0
    0.1167   -4.3542    0.0000 C   0  0  0  0  0  0  0  0  0  0  0  0
    5.1292   -4.7500    0.0000 O   0  0  0  0  0  0  0  0  0  0  0  0
    3.6750   -2.2792    0.0000 O   0  0  0  0  0  0  0  0  0  0  0  0
    5.8250   -3.5000    0.0000 C   0  0  0  0  0  0  0  0  0  0  0  0
    5.1000   -2.2667    0.0000 C   0  0  0  0  0  0  0  0  0  0  0  0
    2.2500   -2.2875    0.0000 O   0  0  0  0  0  0  0  0  0  0  0  0
    6.5292   -2.2542    0.0000 C   0  0  0  0  0  0  0  0  0  0  0  0
    6.5375   -3.0792    0.0000 C   0  0  0  0  0  0  0  0  0  0  0  0
    5.8042   -1.8500    0.0000 C   0  0  0  0  0  0  0  0  0  0  0  0
    7.2375   -1.8292    0.0000 O   0  0  0  0  0  0  0  0  0  0  0  0
   -0.7083   -4.3542    0.0000 C   0  0  0  0  0  0  0  0  0  0  0  0
   -0.1000   -5.1542    0.0000 C   0  0  0  0  0  0  0  0  0  0  0  0
    2.9625   -1.8667    0.0000 C   0  0  0  0  0  0  0  0  0  0  0  0
    7.9542   -2.2375    0.0000 C   0  0  0  0  0  0  0  0  0  0  0  0
  2  3  1  0
  3  1  2  0
  4  1  1  0
  5  2  2  0
  6  8  1  0
  7  5  1  0
  8  4  1  0
  9 11  1  0
 10  7  1  0
 11  6  2  0
 12  9  1  0
 13  1  1  0
 14 10  2  0
 15 12  1  0
 16  4  2  0
 17  3  1  0
 18 13  2  0
 19 13  1  0
 20  5  1  0
 21 23  1  0
 22 18  1  0
 23 19  2  0
 24 21  1  0
 25 15  1  0
 26 15  1  0
 27 20  1  0
 28 24  1  0
 22 21  2  0
  2  6  1  0
  7  9  2  0
 14 15  1  0
M  END
>  <ID>  (1982) 


>  <MOLENAME>  (1982) 
ROBUSTIC ACID

>  <therap>  (1982) 
nan

>  <ref>  (1982) 
J Chem Soc 1969:365

>  <cas#>  (1982) 
5307-59-5

>  <source>  (1982) 
Derris robusta

>  <status>  (1982) 
undetermined activity

>  <tradename>  (1982) 
nan

>  <SMILES>  (1982) 
COc1ccc(-c2c(O)c3c(OC)c4c(cc3oc2=O)OC(C)(C)C=C4)cc1

>  <standardized_failed>  (1982) 
False

$$$$

     RDKit          2D

 12 14  0  0  0  0  0  0  0  0999 V2000
    6.6792   -4.1875    0.0000 C   0  0  0  0  0  0  0  0  0  0  0  0
    6.6667   -2.8500    0.0000 C   0  0  0  0  0  0  0  0  0  0  0  0
    5.8917   -3.1125    0.0000 C   0  0  0  0  0  0  0  0  0  0  0  0
    5.8917   -3.9292    0.0000 C   0  0  0  0  0  0  0  0  0  0  0  0
    7.1625   -3.5167    0.0000 O   0  0  0  0  0  0  0  0  0  0  0  0
    5.1042   -4.1917    0.0000 C   0  0  0  0  0  0  0  0  0  0  0  0
    5.1167   -2.8500    0.0000 C   0  0  0  0  0  0  0  0  0  0  0  0
    4.6250   -3.5167    0.0000 O   0  0  0  0  0  0  0  0  0  0  0  0
    6.9250   -2.0667    0.0000 O   0  0  0  0  0  0  0  0  0  0  0  0
    6.9375   -4.9667    0.0000 O   0  0  0  0  0  0  0  0  0  0  0  0
    4.2792   -4.1500    0.0000 C   0  0  0  0  0  0  0  0  0  0  0  0
    4.2917   -2.8792    0.0000 C   0  0  0  0  0  0  0  0  0  0  0  0
  2  5  1  0
  3  4  1  0
  4  1  1  0
  5  1  1  0
  6  4  1  0
  7  3  1  0
  8  6  1  0
  9  2  2  0
 10  1  2  0
 11  6  1  0
 12 11  1  0
  3  2  1  0
  7  8  1  0
  7 12  1  0
M  END
>  <ID>  (1983) 


>  <MOLENAME>  (1983) 
NORCANTHARIDIN

>  <therap>  (1983) 
antineoplastic, protein phosphatase inhibitor

>  <ref>  (1983) 
Biochem Biophys Res Comm 276: 278 (2000)

>  <cas#>  (1983) 
nan

>  <source>  (1983) 
synthetic

>  <status>  (1983) 
experimental

>  <tradename>  (1983) 
nan

>  <SMILES>  (1983) 
O=C1OC(=O)C2C3CCC(O3)C12

>  <standardized_failed>  (1983) 
False

$$$$

     RDKit          2D

 39 44  0  0  0  0  0  0  0  0999 V2000
    5.1750   -0.0167    0.0000 C   0  0  0  0  0  0  0  0  0  0  0  0
    3.0292   -0.4042    0.0000 C   0  0  0  0  0  0  0  0  0  0  0  0
    5.1792    0.8083    0.0000 C   0  0  0  0  0  0  0  0  0  0  0  0
    0.1875   -2.0542    0.0000 C   0  0  0  0  0  0  0  0  0  0  0  0
    3.0250   -1.2292    0.0000 C   0  0  0  0  0  0  0  0  0  0  0  0
    0.1875   -2.8792    0.0000 C   0  0  0  0  0  0  0  0  0  0  0  0
   -0.5333   -3.2917    0.0000 C   0  0  0  0  0  0  0  0  0  0  0  0
    3.7417    0.0083    0.0000 C   0  0  0  0  0  0  0  0  0  0  0  0
    4.4500   -0.4167    0.0000 C   0  0  0  0  0  0  0  0  0  0  0  0
   -0.5375   -1.6417    0.0000 O   0  0  0  0  0  0  0  0  0  0  0  0
    6.2250    1.8333    0.0000 C   0  0  0  0  0  0  0  0  0  0  0  0
    5.9625    1.0583    0.0000 C   0  0  0  0  0  0  0  0  0  0  0  0
   -1.2500   -2.8792    0.0000 C   0  0  0  0  0  0  0  0  0  0  0  0
    7.0125    2.0833    0.0000 C   0  0  0  0  0  0  0  0  0  0  0  0
   -1.2500   -2.0542    0.0000 C   0  0  0  0  0  0  0  0  0  0  0  0
    7.0250    2.9083    0.0000 C   0  0  0  0  0  0  0  0  0  0  0  0
    5.9500   -0.2792    0.0000 C   0  0  0  0  0  0  0  0  0  0  0  0
    4.4750    1.2333    0.0000 C   0  0  0  0  0  0  0  0  0  0  0  0
    2.3167   -1.6417    0.0000 C   0  0  0  0  0  0  0  0  0  0  0  0
    2.3167    0.0083    0.0000 C   0  0  0  0  0  0  0  0  0  0  0  0
    3.7375    0.8333    0.0000 C   0  0  0  0  0  0  0  0  0  0  0  0
    0.8917   -1.6417    0.0000 O   0  0  0  0  0  0  0  0  0  0  0  0
    6.2375    3.1708    0.0000 O   0  0  0  0  0  0  0  0  0  0  0  0
    6.4375    0.3833    0.0000 C   0  0  0  0  0  0  0  0  0  0  0  0
    4.4542   -1.2292    0.0000 C   0  0  0  0  0  0  0  0  0  0  0  0
    3.7375   -1.6417    0.0000 C   0  0  0  0  0  0  0  0  0  0  0  0
    5.7500    2.5083    0.0000 C   0  0  0  0  0  0  0  0  0  0  0  0
    3.0250    0.4208    0.0000 C   0  0  0  0  0  0  0  0  0  0  0  0
    1.6125   -1.2292    0.0000 C   0  0  0  0  0  0  0  0  0  0  0  0
    7.6917    3.3833    0.0000 O   0  0  0  0  0  0  0  0  0  0  0  0
    5.1667   -0.8417    0.0000 O   0  0  0  0  0  0  0  0  0  0  0  0
    0.9000   -3.2917    0.0000 O   0  0  0  0  0  0  0  0  0  0  0  0
    3.0167   -2.0542    0.0000 O   0  0  0  0  0  0  0  0  0  0  0  0
    2.3042    0.8208    0.0000 O   0  0  0  0  0  0  0  0  0  0  0  0
   -0.5333   -4.1167    0.0000 O   0  0  0  0  0  0  0  0  0  0  0  0
   -1.9708   -3.2917    0.0000 O   0  0  0  0  0  0  0  0  0  0  0  0
    1.6125   -0.4042    0.0000 C   0  0  0  0  0  0  0  0  0  0  0  0
    5.1750    1.6333    0.0000 C   0  0  0  0  0  0  0  0  0  0  0  0
   -1.9708   -1.6417    0.0000 C   0  0  0  0  0  0  0  0  0  0  0  0
  2  8  1  0
  3  1  1  0
  4 22  1  1
  5 26  1  0
  6  4  1  0
  7  6  1  0
  8  9  1  0
  9  1  1  0
 10  4  1  0
 12 11  1  0
 12  3  1  0
 13 15  1  0
 14 11  2  0
 15 10  1  0
 16 14  1  0
 17  1  1  0
 18  3  1  0
 19  5  1  0
 20  2  1  0
 21  8  1  0
 29 22  1  1
 23 27  1  0
 24 17  1  0
 25  9  1  0
 26 25  1  0
 27 11  1  0
  2 28  1  1
 29 19  1  0
 30 16  2  0
  1 31  1  1
  6 32  1  6
  5 33  1  1
 34 28  2  0
  7 35  1  6
 13 36  1  1
 37 20  1  0
  3 38  1  1
 15 39  1  6
 12 24  1  1
 21 18  1  0
  5  2  1  0
 29 37  1  0
 23 16  1  0
 13  7  1  0
M  END
>  <ID>  (1984) 


>  <MOLENAME>  (1984) 
CONVALLATOXIN

>  <therap>  (1984) 
cardiotonic

>  <ref>  (1984) 
Phytochemistry 13: 1805 (1974)

>  <cas#>  (1984) 
508-75-8

>  <source>  (1984) 
Convallaria majalis

>  <status>  (1984) 
experimental

>  <tradename>  (1984) 
nan

>  <SMILES>  (1984) 
C[C@@H]1O[C@@H](O[C@H]2CC[C@]3(C=O)C4CC[C@]5(C)[C@@H](C6=CC(=O)OC6)CC[C@]5(O)C4CC[C@]3(O)C2)[C@H](O)[C@H](O)[C@H]1O

>  <standardized_failed>  (1984) 
False

$$$$

     RDKit          2D

 21 23  0  0  0  0  0  0  0  0999 V2000
    6.8542   -2.6750    0.0000 C   0  0  0  0  0  0  0  0  0  0  0  0
    6.1417   -3.0917    0.0000 C   0  0  0  0  0  0  0  0  0  0  0  0
    5.4292   -2.6792    0.0000 C   0  0  0  0  0  0  0  0  0  0  0  0
    6.8542   -1.8417    0.0000 C   0  0  0  0  0  0  0  0  0  0  0  0
    6.1375   -1.4375    0.0000 O   0  0  0  0  0  0  0  0  0  0  0  0
    5.4292   -1.8542    0.0000 C   0  0  0  0  0  0  0  0  0  0  0  0
    4.7125   -3.0917    0.0000 C   0  0  0  0  0  0  0  0  0  0  0  0
    4.7125   -1.4417    0.0000 C   0  0  0  0  0  0  0  0  0  0  0  0
    4.0000   -2.6792    0.0000 C   0  0  0  0  0  0  0  0  0  0  0  0
    6.1417   -3.9167    0.0000 O   0  0  0  0  0  0  0  0  0  0  0  0
    4.0000   -1.8542    0.0000 C   0  0  0  0  0  0  0  0  0  0  0  0
    7.5625   -1.4292    0.0000 C   0  0  0  0  0  0  0  0  0  0  0  0
    7.5750   -3.0792    0.0000 O   0  0  0  0  0  0  0  0  0  0  0  0
    4.7167   -3.9167    0.0000 O   0  0  0  0  0  0  0  0  0  0  0  0
    3.2875   -1.4417    0.0000 O   0  0  0  0  0  0  0  0  0  0  0  0
    8.2792   -1.8417    0.0000 C   0  0  0  0  0  0  0  0  0  0  0  0
    7.5542   -0.6042    0.0000 C   0  0  0  0  0  0  0  0  0  0  0  0
    8.2833   -2.6667    0.0000 C   0  0  0  0  0  0  0  0  0  0  0  0
    8.9917   -1.4250    0.0000 C   0  0  0  0  0  0  0  0  0  0  0  0
    8.2667   -0.1917    0.0000 C   0  0  0  0  0  0  0  0  0  0  0  0
    8.9875   -0.6000    0.0000 C   0  0  0  0  0  0  0  0  0  0  0  0
  2  1  1  0
  3  2  1  0
  4  1  2  0
  5  4  1  0
  6  3  2  0
  7  3  1  0
  8  6  1  0
  9  7  2  0
 10  2  2  0
 11  8  2  0
 12  4  1  0
 13  1  1  0
 14  7  1  0
 15 11  1  0
 16 12  2  0
 17 12  1  0
 18 13  1  0
 19 16  1  0
 20 17  2  0
 21 20  1  0
  5  6  1  0
 11  9  1  0
 19 21  2  0
M  END
>  <ID>  (1985) 


>  <MOLENAME>  (1985) 
GALANGIN 3-O-METHYL ETHER

>  <therap>  (1985) 
nan

>  <ref>  (1985) 
nan

>  <cas#>  (1985) 
6665-74-3

>  <source>  (1985) 
Populus nigra

>  <status>  (1985) 
undetermined activity

>  <tradename>  (1985) 
nan

>  <SMILES>  (1985) 
COc1c(-c2ccccc2)oc2c(c(O)cc(O)c2)c1=O

>  <standardized_failed>  (1985) 
False

$$$$

     RDKit          2D

 25 27  0  0  0  0  0  0  0  0999 V2000
    3.5875   -1.5042    0.0000 C   0  0  0  0  0  0  0  0  0  0  0  0
    2.1917   -1.5042    0.0000 C   0  0  0  0  0  0  0  0  0  0  0  0
    3.5792   -2.3042    0.0000 C   0  0  0  0  0  0  0  0  0  0  0  0
    2.2042   -2.3042    0.0000 C   0  0  0  0  0  0  0  0  0  0  0  0
    4.2792   -1.1042    0.0000 C   0  0  0  0  0  0  0  0  0  0  0  0
    1.5042   -2.7042    0.0000 C   0  0  0  0  0  0  0  0  0  0  0  0
    2.8917   -2.7042    0.0000 O   0  0  0  0  0  0  0  0  0  0  0  0
    4.9667   -1.5042    0.0000 C   0  0  0  0  0  0  0  0  0  0  0  0
    1.5042   -1.1042    0.0000 C   0  0  0  0  0  0  0  0  0  0  0  0
    0.8167   -2.3042    0.0000 C   0  0  0  0  0  0  0  0  0  0  0  0
    4.9667   -2.3125    0.0000 C   0  0  0  0  0  0  0  0  0  0  0  0
    4.2750   -2.7042    0.0000 C   0  0  0  0  0  0  0  0  0  0  0  0
    0.8167   -1.5042    0.0000 C   0  0  0  0  0  0  0  0  0  0  0  0
    1.5042   -3.5042    0.0000 C   0  0  0  0  0  0  0  0  0  0  0  0
    5.6667   -1.1125    0.0000 C   0  0  0  0  0  0  0  0  0  0  0  0
    4.2792   -0.3042    0.0000 O   0  0  0  0  0  0  0  0  0  0  0  0
    5.6542   -2.7167    0.0000 O   0  0  0  0  0  0  0  0  0  0  0  0
    2.1917   -3.9042    0.0000 O   0  0  0  0  0  0  0  0  0  0  0  0
    6.3542   -1.5167    0.0000 O   0  0  0  0  0  0  0  0  0  0  0  0
    1.5042   -0.3042    0.0000 O   0  0  0  0  0  0  0  0  0  0  0  0
    0.1250   -2.7042    0.0000 O   0  0  0  0  0  0  0  0  0  0  0  0
    3.5750   -0.5375    0.0000 C   0  0  0  0  0  0  0  0  0  0  0  0
    0.1250   -1.1042    0.0000 C   0  0  0  0  0  0  0  0  0  0  0  0
    0.8042   -3.8917    0.0000 C   0  0  0  0  0  0  0  0  0  0  0  0
    5.6667   -0.3042    0.0000 C   0  0  0  0  0  0  0  0  0  0  0  0
  2  1  1  0
  3  1  1  0
  4  2  2  0
  5  1  1  0
  6  4  1  0
  7  3  1  0
  8  5  1  0
  9  2  1  0
 10 13  1  0
 11  8  1  0
 12  3  2  0
 13  9  2  0
 14  6  1  0
 15  8  1  0
 16  5  2  0
 17 11  2  0
 18 14  2  0
 19 15  2  0
 20  9  1  0
 21 10  1  0
 22  1  1  0
 23 13  1  0
 24 14  1  0
 25 15  1  0
 12 11  1  0
  4  7  1  0
  6 10  2  0
M  END
>  <ID>  (1986) 


>  <MOLENAME>  (1986) 
USNIC ACID

>  <therap>  (1986) 
antibacterial

>  <ref>  (1986) 
J Chem Soc, 1953, 603; Antibiotics I (Verlag), 1967, p 611

>  <cas#>  (1986) 
125-46-2

>  <source>  (1986) 
Usnea, Cladonia and other lichen spp

>  <status>  (1986) 
experimental

>  <tradename>  (1986) 
nan

>  <SMILES>  (1986) 
CC(=O)c1c(O)c(C)c(O)c2c1OC1=CC(=O)C(C(C)=O)C(=O)C12C

>  <standardized_failed>  (1986) 
False

$$$$

     RDKit          2D

 27 27  0  0  0  0  0  0  0  0999 V2000
    3.6667   -1.7875    0.0000 C   0  0  0  0  0  0  0  0  0  0  0  0
    2.8625   -1.8000    0.0000 N   0  0  0  0  0  0  0  0  0  0  0  0
    4.9000   -2.4792    0.0000 N   0  0  0  0  0  0  0  0  0  0  0  0
    4.0917   -2.4792    0.0000 C   0  0  0  0  0  0  0  0  0  0  0  0
    5.3125   -3.1792    0.0000 C   0  0  0  0  0  0  0  0  0  0  0  0
    7.3417   -3.8750    0.0000 C   0  0  0  0  0  0  0  0  0  0  0  0
    4.0667   -1.0625    0.0000 O   0  0  0  0  0  0  0  0  0  0  0  0
    6.1167   -3.1792    0.0000 C   0  0  0  0  0  0  0  0  0  0  0  0
    2.4542   -2.5042    0.0000 C   0  0  0  0  0  0  0  0  0  0  0  0
    6.5292   -3.8750    0.0000 C   0  0  0  0  0  0  0  0  0  0  0  0
    4.9000   -3.8917    0.0000 O   0  0  0  0  0  0  0  0  0  0  0  0
    7.7500   -3.1667    0.0000 O   0  0  0  0  0  0  0  0  0  0  0  0
    7.7625   -4.5750    0.0000 N   0  0  0  0  0  0  0  0  0  0  0  0
    3.6917   -3.1917    0.0000 C   0  0  0  0  0  0  0  0  0  0  0  0
    2.4542   -1.1000    0.0000 C   0  0  0  0  0  0  0  0  0  0  0  0
    8.5667   -4.5625    0.0000 O   0  0  0  0  0  0  0  0  0  0  0  0
    2.4667   -3.9125    0.0000 O   0  0  0  0  0  0  0  0  0  0  0  0
    1.6417   -1.1000    0.0000 C   0  0  0  0  0  0  0  0  0  0  0  0
    2.8750   -3.1917    0.0000 C   0  0  0  0  0  0  0  0  0  0  0  0
    1.6417   -2.5042    0.0000 C   0  0  0  0  0  0  0  0  0  0  0  0
    6.5292   -2.4667    0.0000 C   0  0  0  0  0  0  0  0  0  0  0  0
    4.0917   -3.9000    0.0000 C   0  0  0  0  0  0  0  0  0  0  0  0
    3.1500   -3.1917    0.0000 C   0  0  0  0  0  0  0  0  0  0  0  0
    7.3417   -2.4667    0.0000 C   0  0  0  0  0  0  0  0  0  0  0  0
    8.5417   -1.7500    0.0000 C   0  0  0  0  0  0  0  0  0  0  0  0
    7.7292   -1.7625    0.0000 C   0  0  0  0  0  0  0  0  0  0  0  0
    8.9542   -1.0417    0.0000 C   0  0  0  0  0  0  0  0  0  0  0  0
  2  1  1  0
  4  3  1  1
  4  1  1  0
  5  3  1  0
  6 10  1  0
  7  1  2  0
  8  5  1  0
  9  2  1  0
  8 10  1  6
 11  5  2  0
 12  6  2  0
 13  6  1  0
  4 14  1  0
 15  2  1  0
 16 13  1  0
 17 19  1  0
 18 15  1  0
  9 19  1  6
 20  9  1  0
  8 21  1  0
 22 14  1  0
 23 14  1  0
 24 21  1  0
 25 26  1  0
 26 24  1  0
 27 25  1  0
 18 20  1  0
M  END
>  <ID>  (1987) 


>  <MOLENAME>  (1987) 
ACTINONIN

>  <therap>  (1987) 
antibacterial

>  <ref>  (1987) 
Nature 195: 701 (1962)

>  <cas#>  (1987) 
13434-13-4

>  <source>  (1987) 
Streptomyces spp.

>  <status>  (1987) 
experimental

>  <tradename>  (1987) 
nan

>  <SMILES>  (1987) 
CCCCC[C@H](CC(=O)NO)C(=O)N[C@H](C(=O)N1CCC[C@H]1CO)C(C)C

>  <standardized_failed>  (1987) 
False

$$$$

     RDKit          2D

 21 24  0  0  0  0  0  0  0  0999 V2000
    5.4792   -2.4125    0.0000 C   0  0  0  0  0  0  0  0  0  0  0  0
    7.7042   -1.1250    0.0000 C   0  0  0  0  0  0  0  0  0  0  0  0
    6.2167   -1.9750    0.0000 C   0  0  0  0  0  0  0  0  0  0  0  0
    7.7042   -1.9750    0.0000 C   0  0  0  0  0  0  0  0  0  0  0  0
    6.9542   -2.4125    0.0000 C   0  0  0  0  0  0  0  0  0  0  0  0
    5.4792   -3.2625    0.0000 C   0  0  0  0  0  0  0  0  0  0  0  0
    8.5167   -0.8500    0.0000 C   0  0  0  0  0  0  0  0  0  0  0  0
    6.9542   -0.6792    0.0000 C   0  0  0  0  0  0  0  0  0  0  0  0
    6.2167   -1.1250    0.0000 C   0  0  0  0  0  0  0  0  0  0  0  0
    4.7292   -1.9750    0.0000 C   0  0  0  0  0  0  0  0  0  0  0  0
    8.5167   -2.2292    0.0000 C   0  0  0  0  0  0  0  0  0  0  0  0
    6.9542   -3.2625    0.0000 C   0  0  0  0  0  0  0  0  0  0  0  0
    4.7292   -3.7000    0.0000 C   0  0  0  0  0  0  0  0  0  0  0  0
    6.2167   -3.7000    0.0000 C   0  0  0  0  0  0  0  0  0  0  0  0
    9.0042   -1.5625    0.0000 C   0  0  0  0  0  0  0  0  0  0  0  0
    3.9917   -3.2625    0.0000 C   0  0  0  0  0  0  0  0  0  0  0  0
    8.7292   -0.0500    0.0000 O   0  0  0  0  0  0  0  0  0  0  0  0
    3.2667   -3.6667    0.0000 O   0  0  0  0  0  0  0  0  0  0  0  0
    3.9917   -2.4125    0.0000 C   0  0  0  0  0  0  0  0  0  0  0  0
    5.4792   -1.5625    0.0000 C   0  0  0  0  0  0  0  0  0  0  0  0
    7.6917   -0.3000    0.0000 C   0  0  0  0  0  0  0  0  0  0  0  0
  2  8  1  0
  3  1  1  0
  4  5  1  0
  5  3  1  0
  6  1  1  0
  7  2  1  0
  8  9  1  0
  9  3  1  0
 10  1  1  0
 11  4  1  0
 12 14  1  0
  6 13  1  6
 14  6  1  0
 15 11  1  0
 16 19  1  0
 17  7  2  0
 18 16  2  0
 19 10  1  0
  1 20  1  1
  2 21  1  1
 16 13  1  0
 12  5  1  0
  2  4  1  0
  7 15  1  0
M  END
>  <ID>  (1988) 


>  <MOLENAME>  (1988) 
5alpha-ANDROSTAN-3.17-DIONE

>  <therap>  (1988) 
androgen

>  <ref>  (1988) 
nan

>  <cas#>  (1988) 
nan

>  <source>  (1988) 
human urine & adrenal cortex

>  <status>  (1988) 
experimental

>  <tradename>  (1988) 
nan

>  <SMILES>  (1988) 
C[C@]12CCC3C(CC[C@@H]4CC(=O)CC[C@]34C)C1CCC2=O

>  <standardized_failed>  (1988) 
False

$$$$

     RDKit          2D

 31 35  0  0  0  0  0  0  0  0999 V2000
    4.6042   -1.6125    0.0000 C   0  0  0  0  0  0  0  0  0  0  0  0
    3.8917   -2.0167    0.0000 C   0  0  0  0  0  0  0  0  0  0  0  0
    2.4667   -2.0167    0.0000 C   0  0  0  0  0  0  0  0  0  0  0  0
    4.6167   -0.7792    0.0000 C   0  0  0  0  0  0  0  0  0  0  0  0
    3.1792   -1.6000    0.0000 C   0  0  0  0  0  0  0  0  0  0  0  0
    2.4667   -2.8417    0.0000 C   0  0  0  0  0  0  0  0  0  0  0  0
    5.3292   -0.3750    0.0000 C   0  0  0  0  0  0  0  0  0  0  0  0
    1.7542   -3.2500    0.0000 C   0  0  0  0  0  0  0  0  0  0  0  0
    5.5167    0.4333    0.0000 C   0  0  0  0  0  0  0  0  0  0  0  0
    6.0417   -0.8000    0.0000 C   0  0  0  0  0  0  0  0  0  0  0  0
    3.8917   -2.8375    0.0000 C   0  0  0  0  0  0  0  0  0  0  0  0
    5.3167   -2.0292    0.0000 C   0  0  0  0  0  0  0  0  0  0  0  0
    3.9000   -0.3625    0.0000 C   0  0  0  0  0  0  0  0  0  0  0  0
    1.7542   -1.6000    0.0000 C   0  0  0  0  0  0  0  0  0  0  0  0
    3.1792   -0.7667    0.0000 C   0  0  0  0  0  0  0  0  0  0  0  0
    3.1792   -3.2500    0.0000 C   0  0  0  0  0  0  0  0  0  0  0  0
    4.9792    1.0583    0.0000 C   0  0  0  0  0  0  0  0  0  0  0  0
    6.3500    0.5083    0.0000 C   0  0  0  0  0  0  0  0  0  0  0  0
    1.0417   -2.8417    0.0000 C   0  0  0  0  0  0  0  0  0  0  0  0
    6.0375   -1.6292    0.0000 C   0  0  0  0  0  0  0  0  0  0  0  0
    6.6750   -0.2542    0.0000 C   0  0  0  0  0  0  0  0  0  0  0  0
    1.0417   -2.0167    0.0000 C   0  0  0  0  0  0  0  0  0  0  0  0
    5.2500    1.8375    0.0000 C   0  0  0  0  0  0  0  0  0  0  0  0
    4.6000   -2.4375    0.0000 C   0  0  0  0  0  0  0  0  0  0  0  0
    3.8875   -1.1917    0.0000 C   0  0  0  0  0  0  0  0  0  0  0  0
    2.4625   -1.1917    0.0000 C   0  0  0  0  0  0  0  0  0  0  0  0
    1.3375   -3.9625    0.0000 C   0  0  0  0  0  0  0  0  0  0  0  0
    2.1625   -3.9625    0.0000 C   0  0  0  0  0  0  0  0  0  0  0  0
    0.3292   -3.2542    0.0000 O   0  0  0  0  0  0  0  0  0  0  0  0
    6.7542   -1.2125    0.0000 C   0  0  0  0  0  0  0  0  0  0  0  0
    4.1667    0.9000    0.0000 C   0  0  0  0  0  0  0  0  0  0  0  0
  2  1  1  0
  3  5  1  0
  4  1  1  0
  5  2  1  0
  6 16  1  0
  7  4  1  0
  8  6  1  0
  9  7  1  0
 10 20  1  0
 11  2  1  0
 12  1  1  0
  4 13  1  1
 14  3  1  0
 15 13  1  0
 16 11  1  0
  9 17  1  6
 18  9  1  0
 19  8  1  0
 20 12  1  0
 21 10  1  0
 22 14  1  0
 23 17  2  0
  1 24  1  6
  2 25  1  1
  3 26  1  1
 27  8  1  0
 28  8  1  0
 19 29  1  1
 10 30  1  1
 31 17  1  0
  7 10  1  0
  5 15  1  0
 21 18  1  0
  3  6  1  0
 22 19  1  0
M  END
>  <ID>  (1989) 


>  <MOLENAME>  (1989) 
LUPEOL

>  <therap>  (1989) 
antineoplastic

>  <ref>  (1989) 
Bull Soc Chim Belg 70:585 (1961)

>  <cas#>  (1989) 
545-47-1

>  <source>  (1989) 
widespread in plants

>  <status>  (1989) 
experimental

>  <tradename>  (1989) 
nan

>  <SMILES>  (1989) 
C=C(C)[C@@H]1CC[C@]2(C)CC[C@]3(C)[C@@H](CCC4[C@@]5(C)CC[C@H](O)C(C)(C)C5CC[C@]43C)C12

>  <standardized_failed>  (1989) 
False

$$$$

     RDKit          2D

 17 18  0  0  0  0  0  0  0  0999 V2000
    4.2042   -1.3917    0.0000 N   0  0  0  0  0  0  0  0  0  0  0  0
    4.1792   -2.5000    0.0000 C   0  0  0  0  0  0  0  0  0  0  0  0
    3.4917   -0.9792    0.0000 C   0  0  0  0  0  0  0  0  0  0  0  0
    3.4917   -0.1542    0.0000 N   0  0  0  0  0  0  0  0  0  0  0  0
    3.9292   -3.2667    0.0000 C   0  0  0  0  0  0  0  0  0  0  0  0
    3.5042   -2.0042    0.0000 O   0  0  0  0  0  0  0  0  0  0  0  0
    4.9250   -0.9792    0.0000 C   0  0  0  0  0  0  0  0  0  0  0  0
    3.1000   -3.2667    0.0000 C   0  0  0  0  0  0  0  0  0  0  0  0
    2.8417   -2.4875    0.0000 C   0  0  0  0  0  0  0  0  0  0  0  0
    4.9250   -0.1542    0.0000 C   0  0  0  0  0  0  0  0  0  0  0  0
    4.2042    0.2583    0.0000 C   0  0  0  0  0  0  0  0  0  0  0  0
    2.7792   -1.3917    0.0000 O   0  0  0  0  0  0  0  0  0  0  0  0
    4.2042    1.0833    0.0000 O   0  0  0  0  0  0  0  0  0  0  0  0
    4.4167   -3.9292    0.0000 O   0  0  0  0  0  0  0  0  0  0  0  0
    2.6292   -3.9375    0.0000 O   0  0  0  0  0  0  0  0  0  0  0  0
    2.0542   -2.2417    0.0000 C   0  0  0  0  0  0  0  0  0  0  0  0
    1.5667   -2.8917    0.0000 O   0  0  0  0  0  0  0  0  0  0  0  0
  2  1  1  1
  3  1  1  0
  4  3  1  0
  5  2  1  0
  6  2  1  0
  7  1  1  0
  8  5  1  0
  9  6  1  0
 10  7  2  0
 11 10  1  0
 12  3  2  0
 13 11  2  0
  5 14  1  6
  8 15  1  6
  9 16  1  1
 17 16  1  0
 11  4  1  0
  9  8  1  0
M  END
>  <ID>  (1990) 


>  <MOLENAME>  (1990) 
URIDINE

>  <therap>  (1990) 
nan

>  <ref>  (1990) 
J Chem Soc 1948:1936; J Biol Chem 178:439 (1949)

>  <cas#>  (1990) 
58-96-8

>  <source>  (1990) 
widespread in nature

>  <status>  (1990) 
undetermined activity

>  <tradename>  (1990) 
nan

>  <SMILES>  (1990) 
O=c1ccn([C@@H]2O[C@H](CO)[C@@H](O)[C@H]2O)c(=O)[nH]1

>  <standardized_failed>  (1990) 
False

$$$$

     RDKit          2D

 22 23  0  0  0  0  0  0  0  0999 V2000
    0.9417   -0.0792    0.0000 C   0  0  0  0  0  0  0  0  0  0  0  0
    0.2292   -0.5000    0.0000 C   0  0  0  0  0  0  0  0  0  0  0  0
    3.0875   -0.4917    0.0000 C   0  0  0  0  0  0  0  0  0  0  0  0
    1.6625   -0.4917    0.0000 O   0  0  0  0  0  0  0  0  0  0  0  0
    2.3750   -0.0792    0.0000 C   0  0  0  0  0  0  0  0  0  0  0  0
    3.0875   -1.3167    0.0000 C   0  0  0  0  0  0  0  0  0  0  0  0
   -0.4833   -0.0875    0.0000 C   0  0  0  0  0  0  0  0  0  0  0  0
   -0.4875    0.7375    0.0000 O   0  0  0  0  0  0  0  0  0  0  0  0
   -1.2000    1.1458    0.0000 C   0  0  0  0  0  0  0  0  0  0  0  0
    0.9417    0.7458    0.0000 O   0  0  0  0  0  0  0  0  0  0  0  0
    2.3750   -1.7292    0.0000 O   0  0  0  0  0  0  0  0  0  0  0  0
   -1.2083    1.9708    0.0000 O   0  0  0  0  0  0  0  0  0  0  0  0
    3.8042   -1.7292    0.0000 O   0  0  0  0  0  0  0  0  0  0  0  0
    0.2292   -1.3292    0.0000 C   0  0  0  0  0  0  0  0  0  0  0  0
    3.8000   -0.0750    0.0000 C   0  0  0  0  0  0  0  0  0  0  0  0
    2.3667    0.7458    0.0000 C   0  0  0  0  0  0  0  0  0  0  0  0
   -1.1958   -0.5000    0.0000 C   0  0  0  0  0  0  0  0  0  0  0  0
   -1.9208    0.7333    0.0000 C   0  0  0  0  0  0  0  0  0  0  0  0
   -0.4833   -1.7417    0.0000 C   0  0  0  0  0  0  0  0  0  0  0  0
    3.8000    0.7500    0.0000 C   0  0  0  0  0  0  0  0  0  0  0  0
   -1.1958   -1.3292    0.0000 C   0  0  0  0  0  0  0  0  0  0  0  0
    3.0750    1.1583    0.0000 C   0  0  0  0  0  0  0  0  0  0  0  0
  2  1  1  0
  3  5  2  0
  4  1  1  0
  5  4  1  0
  6  3  1  0
  7  2  2  0
  8  7  1  0
  9  8  1  0
 10  1  2  0
 11  6  2  0
 12  9  2  0
 13  6  1  0
 14  2  1  0
 15  3  1  0
 16  5  1  0
 17  7  1  0
 18  9  1  0
 19 14  2  0
 20 22  1  0
 21 19  1  0
 22 16  2  0
 21 17  2  0
 20 15  2  0
M  END
>  <ID>  (1991) 


>  <MOLENAME>  (1991) 
DIPLOSALSALATE

>  <therap>  (1991) 
analgesic, antipyretic

>  <ref>  (1991) 
nan

>  <cas#>  (1991) 
530-75-6

>  <source>  (1991) 
synthetic

>  <status>  (1991) 
experimental

>  <tradename>  (1991) 
nan

>  <SMILES>  (1991) 
CC(=O)Oc1c(C(=O)Oc2c(C(=O)O)cccc2)cccc1

>  <standardized_failed>  (1991) 
False

$$$$

     RDKit          2D

 27 31  0  0  0  0  0  0  0  0999 V2000
    5.3875   -2.0125    0.0000 C   0  0  0  0  0  0  0  0  0  0  0  0
    8.2958   -2.3167    0.0000 C   0  0  0  0  0  0  0  0  0  0  0  0
    5.8750   -2.6792    0.0000 C   0  0  0  0  0  0  0  0  0  0  0  0
    6.1792   -1.8000    0.0000 C   0  0  0  0  0  0  0  0  0  0  0  0
    7.6042   -1.8708    0.0000 C   0  0  0  0  0  0  0  0  0  0  0  0
    6.2208   -0.9750    0.0000 N   0  0  0  0  0  0  0  0  0  0  0  0
    5.3917   -3.3500    0.0000 N   0  0  0  0  0  0  0  0  0  0  0  0
    7.6458   -1.0417    0.0000 C   0  0  0  0  0  0  0  0  0  0  0  0
    9.0333   -1.9417    0.0000 C   0  0  0  0  0  0  0  0  0  0  0  0
    4.6000   -2.2750    0.0000 C   0  0  0  0  0  0  0  0  0  0  0  0
    6.8708   -2.2417    0.0000 C   0  0  0  0  0  0  0  0  0  0  0  0
    6.9542   -0.5917    0.0000 C   0  0  0  0  0  0  0  0  0  0  0  0
    4.6042   -3.1000    0.0000 C   0  0  0  0  0  0  0  0  0  0  0  0
    8.2542   -3.1375    0.0000 C   0  0  0  0  0  0  0  0  0  0  0  0
    9.0750   -1.1125    0.0000 O   0  0  0  0  0  0  0  0  0  0  0  0
    4.9333   -1.3250    0.0000 C   0  0  0  0  0  0  0  0  0  0  0  0
    5.4500   -0.6792    0.0000 C   0  0  0  0  0  0  0  0  0  0  0  0
    8.3792   -0.6625    0.0000 C   0  0  0  0  0  0  0  0  0  0  0  0
    6.7000   -2.6792    0.0000 O   0  0  0  0  0  0  0  0  0  0  0  0
    7.5208   -3.5167    0.0000 O   0  0  0  0  0  0  0  0  0  0  0  0
    8.9500   -3.5875    0.0000 O   0  0  0  0  0  0  0  0  0  0  0  0
    3.8833   -1.8625    0.0000 C   0  0  0  0  0  0  0  0  0  0  0  0
    3.8833   -3.5167    0.0000 C   0  0  0  0  0  0  0  0  0  0  0  0
    8.3750    0.1625    0.0000 C   0  0  0  0  0  0  0  0  0  0  0  0
    8.9042   -4.4125    0.0000 C   0  0  0  0  0  0  0  0  0  0  0  0
    3.1708   -2.2750    0.0000 C   0  0  0  0  0  0  0  0  0  0  0  0
    3.1708   -3.1042    0.0000 C   0  0  0  0  0  0  0  0  0  0  0  0
  5  2  1  0
  1  3  1  0
  4  1  1  0
  5 11  1  1
  6  4  1  0
  7  3  1  0
  8 12  1  0
  9  2  2  0
 10  1  1  0
 11  4  1  0
 12  6  1  0
 13 10  2  0
 14  2  1  0
 15 18  1  0
  1 16  1  1
 17 16  1  0
 18  8  1  0
 19  3  2  0
 20 14  2  0
 21 14  1  0
 22 10  1  0
 23 13  1  0
 18 24  1  6
 25 21  1  0
 26 22  2  0
 27 23  2  0
  7 13  1  0
 17  6  1  0
 27 26  1  0
  5  8  1  0
 15  9  1  0
M  END
>  <ID>  (1992) 


>  <MOLENAME>  (1992) 
MITRAPHYLLINE

>  <therap>  (1992) 
antineoplastic

>  <ref>  (1992) 
Br J Haematol 132:615 (2006); Planta Med 76:133 (2010)

>  <cas#>  (1992) 
509-80-8

>  <source>  (1992) 
Uncaria tomentosa

>  <status>  (1992) 
experimental

>  <tradename>  (1992) 
nan

>  <SMILES>  (1992) 
COC(=O)C1=CO[C@@H](C)C2CN3CC[C@]4(C(=O)Nc5c4cccc5)C3C[C@H]12

>  <standardized_failed>  (1992) 
False

$$$$

     RDKit          2D

 20 19  0  0  0  0  0  0  0  0999 V2000
    8.4042   -1.1500    0.0000 C   0  0  0  0  0  0  0  0  0  0  0  0
    9.1167   -0.7292    0.0000 C   0  0  0  0  0  0  0  0  0  0  0  0
   -0.8583   -1.5625    0.0000 C   0  0  0  0  0  0  0  0  0  0  0  0
   -1.5708   -1.1500    0.0000 C   0  0  0  0  0  0  0  0  0  0  0  0
   -0.1458   -1.1500    0.0000 C   0  0  0  0  0  0  0  0  0  0  0  0
    7.6917   -1.5625    0.0000 C   0  0  0  0  0  0  0  0  0  0  0  0
   -0.1500   -0.3250    0.0000 O   0  0  0  0  0  0  0  0  0  0  0  0
   -1.5750   -0.3250    0.0000 O   0  0  0  0  0  0  0  0  0  0  0  0
   -2.2833   -2.3875    0.0000 O   0  0  0  0  0  0  0  0  0  0  0  0
   -2.2833   -1.5625    0.0000 C   0  0  0  0  0  0  0  0  0  0  0  0
    0.5667   -1.5625    0.0000 C   0  0  0  0  0  0  0  0  0  0  0  0
    6.9792   -1.1500    0.0000 C   0  0  0  0  0  0  0  0  0  0  0  0
    1.2792   -1.1500    0.0000 C   0  0  0  0  0  0  0  0  0  0  0  0
    1.9917   -1.5625    0.0000 C   0  0  0  0  0  0  0  0  0  0  0  0
    2.7042   -1.1500    0.0000 C   0  0  0  0  0  0  0  0  0  0  0  0
    3.4167   -1.5625    0.0000 C   0  0  0  0  0  0  0  0  0  0  0  0
    4.1292   -1.1500    0.0000 C   0  0  0  0  0  0  0  0  0  0  0  0
    4.8417   -1.5625    0.0000 C   0  0  0  0  0  0  0  0  0  0  0  0
    5.5542   -1.1500    0.0000 C   0  0  0  0  0  0  0  0  0  0  0  0
    6.2667   -1.5625    0.0000 C   0  0  0  0  0  0  0  0  0  0  0  0
  2  1  3  0
  3  5  1  0
  4  3  1  0
  5 11  1  0
  6  1  1  0
  7  5  1  0
  8  4  1  0
  9 10  1  0
 10  4  1  0
 11 13  1  0
 12  6  1  0
 13 14  1  0
 14 15  1  0
 15 16  1  0
 16 17  1  0
 17 18  1  0
 18 19  1  0
 19 20  1  0
 20 12  1  0
M  END
>  <ID>  (1993) 


>  <MOLENAME>  (1993) 
AVOCADYNE

>  <therap>  (1993) 
antibacterial, antifungal

>  <ref>  (1993) 
An Acad Brasil Cienc 42 (suplemento): 45 (1970); Tetrahedron 25:4617 (1969)

>  <cas#>  (1993) 
34524-38-4

>  <source>  (1993) 
Persea spp

>  <status>  (1993) 
experimental

>  <tradename>  (1993) 
nan

>  <SMILES>  (1993) 
C#CCCCCCCCCCCCC(O)CC(O)CO

>  <standardized_failed>  (1993) 
False

$$$$

     RDKit          2D

 66 73  0  0  0  0  0  0  0  0999 V2000
    6.5292   -2.1667    0.0000 C   0  0  0  0  0  0  0  0  0  0  0  0
    6.5417   -5.3417    0.0000 C   0  0  0  0  0  0  0  0  0  0  0  0
    6.5417   -6.1167    0.0000 C   0  0  0  0  0  0  0  0  0  0  0  0
    6.5292   -1.3917    0.0000 C   0  0  0  0  0  0  0  0  0  0  0  0
    7.2167   -4.9542    0.0000 C   0  0  0  0  0  0  0  0  0  0  0  0
    7.2042   -2.5542    0.0000 C   0  0  0  0  0  0  0  0  0  0  0  0
    4.8292   -5.7375    0.0000 O   0  0  0  0  0  0  0  0  0  0  0  0
    4.7917   -1.8042    0.0000 O   0  0  0  0  0  0  0  0  0  0  0  0
    5.5125   -6.1250    0.0000 C   0  0  0  0  0  0  0  0  0  0  0  0
    5.4667   -1.4167    0.0000 C   0  0  0  0  0  0  0  0  0  0  0  0
    4.1167   -1.4167    0.0000 C   0  0  0  0  0  0  0  0  0  0  0  0
    4.1542   -6.1250    0.0000 C   0  0  0  0  0  0  0  0  0  0  0  0
    4.1167   -0.6292    0.0000 C   0  0  0  0  0  0  0  0  0  0  0  0
    4.1542   -6.9125    0.0000 C   0  0  0  0  0  0  0  0  0  0  0  0
    7.8792   -2.1667    0.0000 C   0  0  0  0  0  0  0  0  0  0  0  0
    7.8917   -5.3417    0.0000 C   0  0  0  0  0  0  0  0  0  0  0  0
    5.4667   -0.6292    0.0000 C   0  0  0  0  0  0  0  0  0  0  0  0
    5.5125   -6.9125    0.0000 C   0  0  0  0  0  0  0  0  0  0  0  0
    6.1917   -8.0750    0.0000 C   0  0  0  0  0  0  0  0  0  0  0  0
    6.1292    0.6250    0.0000 C   0  0  0  0  0  0  0  0  0  0  0  0
    4.8292   -7.3000    0.0000 C   0  0  0  0  0  0  0  0  0  0  0  0
    4.7917   -0.2417    0.0000 C   0  0  0  0  0  0  0  0  0  0  0  0
    7.2042   -1.0042    0.0000 C   0  0  0  0  0  0  0  0  0  0  0  0
    7.2167   -6.5042    0.0000 C   0  0  0  0  0  0  0  0  0  0  0  0
    6.8042    1.0208    0.0000 C   0  0  0  0  0  0  0  0  0  0  0  0
    6.8667   -8.4667    0.0000 C   0  0  0  0  0  0  0  0  0  0  0  0
    8.2167   -9.2500    0.0000 C   0  0  0  0  0  0  0  0  0  0  0  0
    8.1542    1.8000    0.0000 C   0  0  0  0  0  0  0  0  0  0  0  0
    7.8792   -1.3917    0.0000 C   0  0  0  0  0  0  0  0  0  0  0  0
    7.8917   -6.1167    0.0000 C   0  0  0  0  0  0  0  0  0  0  0  0
    6.1500   -0.2417    0.0000 O   0  0  0  0  0  0  0  0  0  0  0  0
    6.1917   -7.3000    0.0000 O   0  0  0  0  0  0  0  0  0  0  0  0
    3.4292   -0.2417    0.0000 C   0  0  0  0  0  0  0  0  0  0  0  0
    3.4750   -7.3000    0.0000 C   0  0  0  0  0  0  0  0  0  0  0  0
    7.5417   -9.6375    0.0000 C   0  0  0  0  0  0  0  0  0  0  0  0
    8.2167   -8.4667    0.0000 C   0  0  0  0  0  0  0  0  0  0  0  0
    8.1542    1.0208    0.0000 C   0  0  0  0  0  0  0  0  0  0  0  0
    7.4792    2.1875    0.0000 C   0  0  0  0  0  0  0  0  0  0  0  0
    3.4292   -1.8042    0.0000 C   0  0  0  0  0  0  0  0  0  0  0  0
    3.4750   -5.7375    0.0000 C   0  0  0  0  0  0  0  0  0  0  0  0
    7.4792    0.6250    0.0000 C   0  0  0  0  0  0  0  0  0  0  0  0
    6.8042    1.8000    0.0000 C   0  0  0  0  0  0  0  0  0  0  0  0
    6.8667   -9.2500    0.0000 C   0  0  0  0  0  0  0  0  0  0  0  0
    7.5417   -8.0750    0.0000 C   0  0  0  0  0  0  0  0  0  0  0  0
    2.7542   -0.6292    0.0000 C   0  0  0  0  0  0  0  0  0  0  0  0
    2.8000   -6.9125    0.0000 C   0  0  0  0  0  0  0  0  0  0  0  0
    2.7542   -1.4167    0.0000 C   0  0  0  0  0  0  0  0  0  0  0  0
    2.8000   -6.1250    0.0000 C   0  0  0  0  0  0  0  0  0  0  0  0
    5.4542    1.0208    0.0000 O   0  0  0  0  0  0  0  0  0  0  0  0
    5.5125   -8.4667    0.0000 O   0  0  0  0  0  0  0  0  0  0  0  0
    7.2042   -3.3375    0.0000 O   0  0  0  0  0  0  0  0  0  0  0  0
    7.2167   -4.1750    0.0000 O   0  0  0  0  0  0  0  0  0  0  0  0
    8.5667   -4.9542    0.0000 O   0  0  0  0  0  0  0  0  0  0  0  0
    8.5542   -2.5542    0.0000 O   0  0  0  0  0  0  0  0  0  0  0  0
    8.8917   -9.6375    0.0000 O   0  0  0  0  0  0  0  0  0  0  0  0
    8.8292    2.1875    0.0000 O   0  0  0  0  0  0  0  0  0  0  0  0
    8.5667   -6.5042    0.0000 O   0  0  0  0  0  0  0  0  0  0  0  0
    8.5542   -1.0042    0.0000 O   0  0  0  0  0  0  0  0  0  0  0  0
    3.4292    0.5333    0.0000 O   0  0  0  0  0  0  0  0  0  0  0  0
    3.4750   -8.0750    0.0000 O   0  0  0  0  0  0  0  0  0  0  0  0
    7.4792    2.9833    0.0000 O   0  0  0  0  0  0  0  0  0  0  0  0
    8.8917   -8.0750    0.0000 O   0  0  0  0  0  0  0  0  0  0  0  0
    8.8292    0.6250    0.0000 O   0  0  0  0  0  0  0  0  0  0  0  0
    7.5417  -10.4250    0.0000 O   0  0  0  0  0  0  0  0  0  0  0  0
    2.0792   -1.8042    0.0000 O   0  0  0  0  0  0  0  0  0  0  0  0
    2.1167   -5.7375    0.0000 O   0  0  0  0  0  0  0  0  0  0  0  0
  2  1  1  0
  3  2  1  0
  4  1  1  0
  5  2  2  0
  6  1  2  0
  9  7  1  6
 10  8  1  1
  9  3  1  0
 10  4  1  0
 11  8  1  0
 12  7  1  0
 13 22  1  0
 14 21  1  0
 15  6  1  0
 16  5  1  0
 17 10  1  0
 18  9  1  0
 19 32  1  0
 20 31  1  0
 21 18  1  0
 22 17  1  0
 23  4  2  0
 24  3  2  0
 25 20  1  0
 26 19  1  0
 27 36  2  0
 28 38  2  0
 29 15  2  0
 30 16  2  0
 17 31  1  1
 18 32  1  6
 33 13  2  0
 34 14  2  0
 35 43  2  0
 36 44  1  0
 37 41  2  0
 38 42  1  0
 39 11  2  0
 40 12  2  0
 41 25  1  0
 42 25  2  0
 43 26  1  0
 44 26  2  0
 45 33  1  0
 46 34  1  0
 47 39  1  0
 48 40  1  0
 49 20  2  0
 50 19  2  0
 51  6  1  0
 52  5  1  0
 53 16  1  0
 54 15  1  0
 55 27  1  0
 56 28  1  0
 57 30  1  0
 58 29  1  0
 59 33  1  0
 60 34  1  0
 61 38  1  0
 62 36  1  0
 63 37  1  0
 64 35  1  0
 65 47  1  0
 66 48  1  0
 23 29  1  0
 24 30  1  0
 13 11  1  0
 45 47  2  0
 14 12  1  0
 46 48  2  0
 37 28  1  0
 35 27  1  0
M  END
>  <ID>  (1994) 


>  <MOLENAME>  (1994) 
2'.2'-BISEPIGALLOCATECHIN DIGALLATE

>  <therap>  (1994) 
nan

>  <ref>  (1994) 
nan

>  <cas#>  (1994) 
nan

>  <source>  (1994) 
tea pigment

>  <status>  (1994) 
undetermined activity

>  <tradename>  (1994) 
nan

>  <SMILES>  (1994) 
O=C(O[C@@H]1Cc2c(O)cc(O)cc2O[C@@H]1c1cc(O)c(O)c(O)c1-c1c(O)c(O)c(O)cc1[C@H]1Oc2cc(O)cc(O)c2C[C@H]1OC(=O)c1cc(O)c(O)c(O)c1)c1cc(O)c(O)c(O)c1

>  <standardized_failed>  (1994) 
False

$$$$

     RDKit          2D

 27 30  0  0  0  0  0  0  0  0999 V2000
    7.4625   -4.0417    0.0000 C   0  0  0  0  0  0  0  0  0  0  0  0
    6.6667   -4.2542    0.0000 C   0  0  0  0  0  0  0  0  0  0  0  0
    6.0792   -3.6667    0.0000 C   0  0  0  0  0  0  0  0  0  0  0  0
    7.9042   -4.7375    0.0000 C   0  0  0  0  0  0  0  0  0  0  0  0
    4.5917   -3.6042    0.0000 C   0  0  0  0  0  0  0  0  0  0  0  0
    6.2917   -2.8792    0.0000 C   0  0  0  0  0  0  0  0  0  0  0  0
    4.4417   -2.7917    0.0000 C   0  0  0  0  0  0  0  0  0  0  0  0
    4.9750   -2.1917    0.0000 C   0  0  0  0  0  0  0  0  0  0  0  0
    5.8042   -2.2167    0.0000 O   0  0  0  0  0  0  0  0  0  0  0  0
    7.6792   -3.2417    0.0000 C   0  0  0  0  0  0  0  0  0  0  0  0
    5.3250   -3.9917    0.0000 O   0  0  0  0  0  0  0  0  0  0  0  0
    6.6167   -5.0750    0.0000 C   0  0  0  0  0  0  0  0  0  0  0  0
    7.3792   -5.3750    0.0000 O   0  0  0  0  0  0  0  0  0  0  0  0
    7.1000   -2.6625    0.0000 C   0  0  0  0  0  0  0  0  0  0  0  0
    3.9667   -4.1292    0.0000 C   0  0  0  0  0  0  0  0  0  0  0  0
    3.6667   -2.5167    0.0000 C   0  0  0  0  0  0  0  0  0  0  0  0
    3.1917   -3.8625    0.0000 C   0  0  0  0  0  0  0  0  0  0  0  0
    3.0417   -3.0500    0.0000 C   0  0  0  0  0  0  0  0  0  0  0  0
    8.7292   -4.7792    0.0000 O   0  0  0  0  0  0  0  0  0  0  0  0
    4.6167   -1.4417    0.0000 O   0  0  0  0  0  0  0  0  0  0  0  0
    4.1167   -4.9500    0.0000 C   0  0  0  0  0  0  0  0  0  0  0  0
    8.4750   -3.0292    0.0000 O   0  0  0  0  0  0  0  0  0  0  0  0
    5.9167   -5.5292    0.0000 O   0  0  0  0  0  0  0  0  0  0  0  0
    3.4917   -5.4792    0.0000 O   0  0  0  0  0  0  0  0  0  0  0  0
    2.5667   -4.4000    0.0000 O   0  0  0  0  0  0  0  0  0  0  0  0
    7.3167   -1.8625    0.0000 C   0  0  0  0  0  0  0  0  0  0  0  0
    3.5167   -1.7042    0.0000 C   0  0  0  0  0  0  0  0  0  0  0  0
  2  1  2  0
  3  2  1  0
  4  1  1  0
  5 11  1  0
  6 14  1  0
  7  5  2  0
  8  9  1  0
  9  6  1  0
 10  1  1  0
 11  3  1  0
 12  2  1  0
 13  4  1  0
 14 10  2  0
 15  5  1  0
 16  7  1  0
 17 15  2  0
 18 17  1  0
 19  4  2  0
 20  8  2  0
 21 15  1  0
 22 10  1  0
 23 12  1  0
 24 21  2  0
 25 17  1  0
 26 14  1  0
 27 16  1  0
 12 13  1  0
  3  6  2  0
  8  7  1  0
 16 18  2  0
M  END
>  <ID>  (1995) 


>  <MOLENAME>  (1995) 
NORSTICTIC ACID

>  <therap>  (1995) 
antibacterial

>  <ref>  (1995) 
Z Naturforsch 59c: 384 (2004)

>  <cas#>  (1995) 
571-67-5

>  <source>  (1995) 
Lobaria pulmonaria, Usnea japonica, Lecanora radiosa, Parmelia & Ramalina spp

>  <status>  (1995) 
experimental

>  <tradename>  (1995) 
nan

>  <SMILES>  (1995) 
Cc1cc(O)c(C=O)c2c1C(=O)Oc1c(O2)c2c(C(=O)OC2O)c(O)c1C

>  <standardized_failed>  (1995) 
False

$$$$

     RDKit          2D

 36 38  0  0  0  0  0  0  0  0999 V2000
    5.0292   -3.3125    0.0000 O   0  0  0  0  0  0  0  0  0  0  0  0
    4.3167   -4.5542    0.0000 C   0  0  0  0  0  0  0  0  0  0  0  0
    4.3167   -3.7292    0.0000 C   0  0  0  0  0  0  0  0  0  0  0  0
    3.6042   -4.9667    0.0000 C   0  0  0  0  0  0  0  0  0  0  0  0
    5.7417   -3.7167    0.0000 C   0  0  0  0  0  0  0  0  0  0  0  0
    5.7417   -4.5500    0.0000 C   0  0  0  0  0  0  0  0  0  0  0  0
    5.0292   -4.9667    0.0000 C   0  0  0  0  0  0  0  0  0  0  0  0
    7.1542   -2.0667    0.0000 C   0  0  0  0  0  0  0  0  0  0  0  0
    6.4542   -3.3042    0.0000 C   0  0  0  0  0  0  0  0  0  0  0  0
    3.6042   -3.3167    0.0000 C   0  0  0  0  0  0  0  0  0  0  0  0
    2.8917   -3.7292    0.0000 C   0  0  0  0  0  0  0  0  0  0  0  0
    2.8917   -4.5542    0.0000 C   0  0  0  0  0  0  0  0  0  0  0  0
    7.8792   -2.4750    0.0000 C   0  0  0  0  0  0  0  0  0  0  0  0
    3.6042   -5.7917    0.0000 O   0  0  0  0  0  0  0  0  0  0  0  0
    6.4417   -2.4792    0.0000 C   0  0  0  0  0  0  0  0  0  0  0  0
    6.4667   -4.9542    0.0000 O   0  0  0  0  0  0  0  0  0  0  0  0
    7.1417   -1.2417    0.0000 O   0  0  0  0  0  0  0  0  0  0  0  0
    8.5917   -2.0542    0.0000 O   0  0  0  0  0  0  0  0  0  0  0  0
    2.8917   -6.2125    0.0000 C   0  0  0  0  0  0  0  0  0  0  0  0
    6.4667   -5.7792    0.0000 C   0  0  0  0  0  0  0  0  0  0  0  0
    7.8542   -0.8167    0.0000 C   0  0  0  0  0  0  0  0  0  0  0  0
    9.3042   -2.4625    0.0000 C   0  0  0  0  0  0  0  0  0  0  0  0
    2.1792   -2.4917    0.0000 C   0  0  0  0  0  0  0  0  0  0  0  0
    2.1792   -3.3167    0.0000 O   0  0  0  0  0  0  0  0  0  0  0  0
    7.1667   -3.7167    0.0000 C   0  0  0  0  0  0  0  0  0  0  0  0
    7.8792   -3.3000    0.0000 C   0  0  0  0  0  0  0  0  0  0  0  0
    2.8917   -7.0375    0.0000 O   0  0  0  0  0  0  0  0  0  0  0  0
    8.5792   -1.2250    0.0000 O   0  0  0  0  0  0  0  0  0  0  0  0
    9.3042   -3.2875    0.0000 O   0  0  0  0  0  0  0  0  0  0  0  0
    5.7542   -6.2000    0.0000 O   0  0  0  0  0  0  0  0  0  0  0  0
    2.8917   -2.0792    0.0000 O   0  0  0  0  0  0  0  0  0  0  0  0
    2.1792   -5.8000    0.0000 C   0  0  0  0  0  0  0  0  0  0  0  0
   10.0167   -2.0417    0.0000 C   0  0  0  0  0  0  0  0  0  0  0  0
    7.8417    0.0083    0.0000 C   0  0  0  0  0  0  0  0  0  0  0  0
    7.1792   -6.1917    0.0000 C   0  0  0  0  0  0  0  0  0  0  0  0
    1.4542   -2.0792    0.0000 C   0  0  0  0  0  0  0  0  0  0  0  0
  2  3  2  0
  3  1  1  0
  4  2  1  0
  5  1  1  6
  6  5  1  0
  7  6  1  0
  8 15  2  0
  5  9  1  0
 10  3  1  0
 11 10  2  0
 12 11  1  0
 13 26  2  0
 14  4  1  0
 15  9  1  0
  6 16  1  6
 17  8  1  0
 18 13  1  0
 19 14  1  0
 20 16  1  0
 21 17  1  0
 22 18  1  0
 23 24  1  0
 24 11  1  0
 25  9  2  0
 26 25  1  0
 27 19  2  0
 28 21  2  0
 29 22  2  0
 30 20  2  0
 31 23  2  0
 32 19  1  0
 33 22  1  0
 34 21  1  0
 35 20  1  0
 36 23  1  0
  7  2  1  0
 12  4  2  0
 13  8  1  0
M  END
>  <ID>  (1996) 


>  <MOLENAME>  (1996) 
EPICATECHIN PENTAACETATE

>  <therap>  (1996) 
nan

>  <ref>  (1996) 
nan

>  <cas#>  (1996) 
nan

>  <source>  (1996) 
derivative

>  <status>  (1996) 
undetermined activity

>  <tradename>  (1996) 
nan

>  <SMILES>  (1996) 
CC(=O)Oc1cc2c(C[C@@H](OC(C)=O)[C@@H](c3ccc(OC(C)=O)c(OC(C)=O)c3)O2)c(OC(C)=O)c1

>  <standardized_failed>  (1996) 
False

$$$$

     RDKit          2D

 24 24  0  0  0  0  0  0  0  0999 V2000
    4.4250   -2.9917    0.0000 C   0  0  0  0  0  0  0  0  0  0  0  0
    2.7792   -2.9917    0.0000 C   0  0  0  0  0  0  0  0  0  0  0  0
    1.1292   -2.9917    0.0000 C   0  0  0  0  0  0  0  0  0  0  0  0
    2.3667   -2.2792    0.0000 C   0  0  0  0  0  0  0  0  0  0  0  0
    3.6042   -2.9917    0.0000 O   0  0  0  0  0  0  0  0  0  0  0  0
    5.2500   -2.9917    0.0000 N   0  0  0  0  0  0  0  0  0  0  0  0
    1.5417   -2.2792    0.0000 C   0  0  0  0  0  0  0  0  0  0  0  0
    0.3042   -2.9917    0.0000 N   0  0  0  0  0  0  0  0  0  0  0  0
    1.5417   -3.7125    0.0000 C   0  0  0  0  0  0  0  0  0  0  0  0
    2.3667   -3.7125    0.0000 C   0  0  0  0  0  0  0  0  0  0  0  0
    4.4417   -3.8792    0.0000 O   0  0  0  0  0  0  0  0  0  0  0  0
    0.3125   -1.4292    0.0000 Cl  0  0  0  0  0  0  0  0  0  0  0  0
    2.7792   -1.5667    0.0000 C   0  0  0  0  0  0  0  0  0  0  0  0
    5.6542   -2.2875    0.0000 C   0  0  0  0  0  0  0  0  0  0  0  0
    5.6542   -3.7042    0.0000 C   0  0  0  0  0  0  0  0  0  0  0  0
   -0.5208   -2.9875    0.0000 C   0  0  0  0  0  0  0  0  0  0  0  0
   -0.1083   -3.7042    0.0000 C   0  0  0  0  0  0  0  0  0  0  0  0
   -0.1083   -2.2792    0.0000 C   0  0  0  0  0  0  0  0  0  0  0  0
    1.1250   -4.4250    0.0000 C   0  0  0  0  0  0  0  0  0  0  0  0
    2.3667   -0.8542    0.0000 C   0  0  0  0  0  0  0  0  0  0  0  0
    3.6042   -1.5667    0.0000 C   0  0  0  0  0  0  0  0  0  0  0  0
    6.4792   -2.2875    0.0000 C   0  0  0  0  0  0  0  0  0  0  0  0
    6.4792   -3.7042    0.0000 C   0  0  0  0  0  0  0  0  0  0  0  0
    6.9000   -2.9917    0.0000 C   0  0  0  0  0  0  0  0  0  0  0  0
  2  5  1  0
  3  9  2  0
  4  2  1  0
  5  1  1  0
  6  1  1  0
  7  4  2  0
  8  3  1  0
  9 10  1  0
 10  2  2  0
 11  1  2  0
 13  4  1  0
 14  6  1  0
 15  6  1  0
 16  8  1  0
 17  8  1  0
 18  8  1  0
 19  9  1  0
 20 13  1  0
 21 13  1  0
 22 14  1  0
 23 15  1  0
 24 22  1  0
 23 24  1  0
  7  3  1  0
M  CHG  2   8   1  12  -1
M  END
>  <ID>  (1997) 


>  <MOLENAME>  (1997) 
2-METHYL-4-(PIPERIDIN-1-YLCARBOXY)-5-ISOPROPYLPHENYLTRIMETHYLAMMONIUM CHLORIDE

>  <therap>  (1997) 
squalene-2,3-oxide cyclase inhibitor, anticholesterolemic

>  <ref>  (1997) 
Steroids 58:74 (1993); J Biol Chem 250:1571 (1975)

>  <cas#>  (1997) 
nan

>  <source>  (1997) 
synthetic

>  <status>  (1997) 
experimental

>  <tradename>  (1997) 
nan

>  <SMILES>  (1997) 
Cc1c([N+](C)(C)C)cc(C(C)C)c(OC(=O)N2CCCCC2)c1

>  <standardized_failed>  (1997) 
False

$$$$

     RDKit          2D

 18 18  0  0  0  0  0  0  0  0999 V2000
   -0.4958    1.0875    0.0000 C   0  0  0  0  0  0  0  0  0  0  0  0
   -0.4958    1.9125    0.0000 C   0  0  0  0  0  0  0  0  0  0  0  0
    0.2167    0.6750    0.0000 C   0  0  0  0  0  0  0  0  0  0  0  0
    2.3542    1.9208    0.0000 C   0  0  0  0  0  0  0  0  0  0  0  0
    3.0667    2.3333    0.0000 C   0  0  0  0  0  0  0  0  0  0  0  0
    1.6417    2.3333    0.0000 C   0  0  0  0  0  0  0  0  0  0  0  0
    0.9333    1.9167    0.0000 C   0  0  0  0  0  0  0  0  0  0  0  0
    0.2167    2.3292    0.0000 C   0  0  0  0  0  0  0  0  0  0  0  0
    0.9333    1.0875    0.0000 C   0  0  0  0  0  0  0  0  0  0  0  0
    3.0667    3.1583    0.0000 O   0  0  0  0  0  0  0  0  0  0  0  0
   -1.2125    0.6750    0.0000 O   0  0  0  0  0  0  0  0  0  0  0  0
   -1.2083    2.3250    0.0000 O   0  0  0  0  0  0  0  0  0  0  0  0
    0.2167   -0.1500    0.0000 O   0  0  0  0  0  0  0  0  0  0  0  0
    3.7792    1.9250    0.0000 O   0  0  0  0  0  0  0  0  0  0  0  0
   -1.9250    1.0875    0.0000 C   0  0  0  0  0  0  0  0  0  0  0  0
   -0.4958   -0.5625    0.0000 C   0  0  0  0  0  0  0  0  0  0  0  0
   -1.2083    3.1500    0.0000 C   0  0  0  0  0  0  0  0  0  0  0  0
    3.7833    1.1000    0.0000 C   0  0  0  0  0  0  0  0  0  0  0  0
  2  1  2  0
  3  1  1  0
  4  6  2  0
  5  4  1  0
  6  7  1  0
  7  8  2  0
  8  2  1  0
  9  3  2  0
 10  5  2  0
 11  1  1  0
 12  2  1  0
 13  3  1  0
 14  5  1  0
 15 11  1  0
 16 13  1  0
 17 12  1  0
 18 14  1  0
  7  9  1  0
M  END
>  <ID>  (1998) 


>  <MOLENAME>  (1998) 
METHYL TRIMETHOXYCINNAMATE

>  <therap>  (1998) 
nan

>  <ref>  (1998) 
Chem Pharm Bull 32:3267 (1984)

>  <cas#>  (1998) 
7560-49-8, 20329-96-8

>  <source>  (1998) 
Aragda lucidula, Heydysarum polybotrys, Piper longoum

>  <status>  (1998) 
undetermined activity

>  <tradename>  (1998) 
nan

>  <SMILES>  (1998) 
COC(=O)/C=C/c1cc(OC)c(OC)c(OC)c1

>  <standardized_failed>  (1998) 
False

$$$$

     RDKit          2D

 14 13  0  0  0  0  0  0  0  0999 V2000
    6.4417   -3.2500    0.0000 C   0  0  0  0  0  0  0  0  0  0  0  0
    7.2125   -2.9667    0.0000 C   0  0  0  0  0  0  0  0  0  0  0  0
    5.8042   -2.7167    0.0000 N   0  0  0  0  0  0  0  0  0  0  0  0
    5.0375   -3.0042    0.0000 C   0  0  0  0  0  0  0  0  0  0  0  0
    7.3500   -2.1542    0.0000 O   0  0  0  0  0  0  0  0  0  0  0  0
    4.4042   -2.4750    0.0000 C   0  0  0  0  0  0  0  0  0  0  0  0
    6.3000   -4.0625    0.0000 C   0  0  0  0  0  0  0  0  0  0  0  0
    4.9000   -3.8125    0.0000 O   0  0  0  0  0  0  0  0  0  0  0  0
    7.8417   -3.4917    0.0000 O   0  0  0  0  0  0  0  0  0  0  0  0
    3.0000   -2.2292    0.0000 N   0  0  0  0  0  0  0  0  0  0  0  0
    3.6292   -2.7542    0.0000 C   0  0  0  0  0  0  0  0  0  0  0  0
    6.9292   -4.5875    0.0000 C   0  0  0  0  0  0  0  0  0  0  0  0
    7.6917   -4.3000    0.0000 C   0  0  0  0  0  0  0  0  0  0  0  0
    6.7917   -5.3917    0.0000 C   0  0  0  0  0  0  0  0  0  0  0  0
  2  1  1  0
  3  1  1  0
  4  3  1  0
  5  2  2  0
  6  4  1  0
  7  1  1  0
  8  4  2  0
  9  2  1  0
 10 11  1  0
 11  6  1  0
 12  7  1  0
 13 12  1  0
 14 12  1  0
M  END
>  <ID>  (1999) 


>  <MOLENAME>  (1999) 
ALANYL-dl-LEUCINE

>  <therap>  (1999) 
nan

>  <ref>  (1999) 
nan

>  <cas#>  (1999) 
nan

>  <source>  (1999) 
synthetic

>  <status>  (1999) 
undetermined activity

>  <tradename>  (1999) 
nan

>  <SMILES>  (1999) 
CC(C)CC(NC(=O)CCN)C(=O)O

>  <standardized_failed>  (1999) 
False

$$$$

     RDKit          2D

 49 55  0  0  0  0  0  0  0  0999 V2000
    7.4792   -5.3917    0.0000 C   0  0  0  0  0  0  0  0  0  0  0  0
    8.2417   -4.9542    0.0000 C   0  0  0  0  0  0  0  0  0  0  0  0
    7.4792   -6.2917    0.0000 C   0  0  0  0  0  0  0  0  0  0  0  0
    5.9042   -6.2917    0.0000 C   0  0  0  0  0  0  0  0  0  0  0  0
    6.6667   -6.7417    0.0000 C   0  0  0  0  0  0  0  0  0  0  0  0
    4.3542   -6.2917    0.0000 C   0  0  0  0  0  0  0  0  0  0  0  0
    5.9042   -5.3917    0.0000 C   0  0  0  0  0  0  0  0  0  0  0  0
    8.2542   -6.1042    0.0000 C   0  0  0  0  0  0  0  0  0  0  0  0
    4.3542   -5.3917    0.0000 C   0  0  0  0  0  0  0  0  0  0  0  0
    6.6667   -4.9542    0.0000 O   0  0  0  0  0  0  0  0  0  0  0  0
    5.1292   -6.7417    0.0000 C   0  0  0  0  0  0  0  0  0  0  0  0
    7.7792   -4.4042    0.0000 O   0  0  0  0  0  0  0  0  0  0  0  0
    5.1292   -4.9542    0.0000 C   0  0  0  0  0  0  0  0  0  0  0  0
    3.3542   -6.8000    0.0000 C   0  0  0  0  0  0  0  0  0  0  0  0
    8.2417   -6.7417    0.0000 C   0  0  0  0  0  0  0  0  0  0  0  0
    9.0167   -5.3917    0.0000 C   0  0  0  0  0  0  0  0  0  0  0  0
    7.2417   -4.6542    0.0000 C   0  0  0  0  0  0  0  0  0  0  0  0
    2.2792   -7.0167    0.0000 C   0  0  0  0  0  0  0  0  0  0  0  0
    9.0167   -6.2917    0.0000 C   0  0  0  0  0  0  0  0  0  0  0  0
    3.5792   -4.9542    0.0000 O   0  0  0  0  0  0  0  0  0  0  0  0
    9.7917   -6.8417    0.0000 C   0  0  0  0  0  0  0  0  0  0  0  0
    8.4167   -4.1250    0.0000 C   0  0  0  0  0  0  0  0  0  0  0  0
    2.8042   -5.3917    0.0000 C   0  0  0  0  0  0  0  0  0  0  0  0
    7.7292   -3.3750    0.0000 C   0  0  0  0  0  0  0  0  0  0  0  0
    9.3000   -2.1542    0.0000 C   0  0  0  0  0  0  0  0  0  0  0  0
    8.2917   -2.4417    0.0000 C   0  0  0  0  0  0  0  0  0  0  0  0
    5.1292   -4.0417    0.0000 C   0  0  0  0  0  0  0  0  0  0  0  0
    2.8042   -6.2917    0.0000 C   0  0  0  0  0  0  0  0  0  0  0  0
    2.1417   -7.7292    0.0000 C   0  0  0  0  0  0  0  0  0  0  0  0
    1.7292   -6.3000    0.0000 C   0  0  0  0  0  0  0  0  0  0  0  0
    6.6667   -7.6417    0.0000 O   0  0  0  0  0  0  0  0  0  0  0  0
    9.8292   -4.9292    0.0000 O   0  0  0  0  0  0  0  0  0  0  0  0
    9.4792   -1.5042    0.0000 O   0  0  0  0  0  0  0  0  0  0  0  0
    1.9167   -5.3917    0.0000 C   0  0  0  0  0  0  0  0  0  0  0  0
    4.3542   -2.7042    0.0000 C   0  0  0  0  0  0  0  0  0  0  0  0
    5.1292   -7.6417    0.0000 O   0  0  0  0  0  0  0  0  0  0  0  0
    4.3542   -3.6167    0.0000 C   0  0  0  0  0  0  0  0  0  0  0  0
   10.0500   -2.6875    0.0000 O   0  0  0  0  0  0  0  0  0  0  0  0
    3.4750   -2.9375    0.0000 Cl  0  0  0  0  0  0  0  0  0  0  0  0
    6.4542   -4.4917    0.0000 C   0  0  0  0  0  0  0  0  0  0  0  0
    7.0417   -3.7167    0.0000 C   0  0  0  0  0  0  0  0  0  0  0  0
    2.8042   -4.4417    0.0000 C   0  0  0  0  0  0  0  0  0  0  0  0
    7.7292   -1.6292    0.0000 C   0  0  0  0  0  0  0  0  0  0  0  0
    2.5417   -8.2667    0.0000 C   0  0  0  0  0  0  0  0  0  0  0  0
    1.3625   -7.9542    0.0000 C   0  0  0  0  0  0  0  0  0  0  0  0
    5.1292   -2.2667    0.0000 C   0  0  0  0  0  0  0  0  0  0  0  0
    3.5792   -2.2667    0.0000 C   0  0  0  0  0  0  0  0  0  0  0  0
   10.8875   -2.3042    0.0000 C   0  0  0  0  0  0  0  0  0  0  0  0
    5.9086   -8.0917    0.0000 C   0  0  0  0  0  0  0  0  0  0  0  0
  2  1  1  0
  3  1  1  0
  4  7  2  0
  5  3  1  0
  6  9  1  0
  7 10  1  0
  8  1  1  0
  9 13  2  0
 10  1  1  0
 11  4  1  0
 12  2  1  0
 13  7  1  0
 14  6  1  0
 15  3  2  0
 16  2  1  0
 17  8  1  0
 18 14  1  0
 19 21  1  0
 20  9  1  0
 21  8  1  0
 22  2  1  0
 23 20  1  0
 24 22  1  0
 25 26  1  0
 26 24  2  0
 27 13  1  0
 28 23  1  0
 29 18  2  0
 30 34  1  0
 31  5  2  0
 32 16  2  0
 33 25  2  0
 34 23  1  0
 35 37  1  0
 36 11  1  0
 37 27  1  0
 38 25  1  0
 39 35  1  0
 40 17  1  0
 41 17  1  0
 42 23  1  0
 43 26  1  0
 44 29  1  0
 45 29  1  0
 46 35  1  0
 47 35  1  0
 48 38  1  0
 12 17  1  0
  5  4  1  0
 19 15  1  0
 16 19  1  0
 11  6  2  0
 28 14  1  0
 30 18  1  0
 36 49  1  0
M  END
>  <ID>  (2000) 


>  <MOLENAME>  (2000) 
DIMETHYL GAMBOGINATE

>  <therap>  (2000) 
nan

>  <ref>  (2000) 
Tetrahedron 21: 1453 (1965)

>  <cas#>  (2000) 
nan

>  <source>  (2000) 
derivative of gambogic acid

>  <status>  (2000) 
undetermined activity

>  <tradename>  (2000) 
nan

>  <SMILES>  (2000) 
COC(=O)/C(C)=C\CC12OC(C)(C)C3CC(C=C4C(=O)c5c(OC431)c(CCC(C)(C)Cl)c1OC3(C)CCC(=C(C)C)C(C3)c1c5OC)C2=O

>  <standardized_failed>  (2000) 
False

$$$$

     RDKit          2D

 44 50  0  0  0  0  0  0  0  0999 V2000
    5.5292   -2.9333    0.0000 C   0  0  0  0  0  0  0  0  0  0  0  0
    4.8167   -3.3417    0.0000 C   0  0  0  0  0  0  0  0  0  0  0  0
    6.2375   -3.3542    0.0000 C   0  0  0  0  0  0  0  0  0  0  0  0
    6.9583   -2.9500    0.0000 C   0  0  0  0  0  0  0  0  0  0  0  0
    6.9667   -2.1250    0.0000 C   0  0  0  0  0  0  0  0  0  0  0  0
   10.8042   -0.1542    0.0000 O   0  0  0  0  0  0  0  0  0  0  0  0
   10.1500   -0.5083    0.0000 C   0  0  0  0  0  0  0  0  0  0  0  0
   10.9792   -0.9375    0.0000 C   0  0  0  0  0  0  0  0  0  0  0  0
    4.8125   -2.5167    0.0000 C   0  0  0  0  0  0  0  0  0  0  0  0
    4.8125   -4.1667    0.0000 C   0  0  0  0  0  0  0  0  0  0  0  0
    1.9625   -5.8208    0.0000 C   0  0  0  0  0  0  0  0  0  0  0  0
    5.5375   -2.1083    0.0000 C   0  0  0  0  0  0  0  0  0  0  0  0
    8.2250   -2.5542    0.0000 C   0  0  0  0  0  0  0  0  0  0  0  0
    7.7500   -1.8792    0.0000 C   0  0  0  0  0  0  0  0  0  0  0  0
    1.9583   -4.9958    0.0000 C   0  0  0  0  0  0  0  0  0  0  0  0
    4.1042   -4.5792    0.0000 C   0  0  0  0  0  0  0  0  0  0  0  0
    7.7375   -3.2125    0.0000 C   0  0  0  0  0  0  0  0  0  0  0  0
    6.2417   -4.1750    0.0000 C   0  0  0  0  0  0  0  0  0  0  0  0
    6.2583   -1.7042    0.0000 C   0  0  0  0  0  0  0  0  0  0  0  0
    1.2500   -6.2375    0.0000 C   0  0  0  0  0  0  0  0  0  0  0  0
    9.3667   -1.0125    0.0000 C   0  0  0  0  0  0  0  0  0  0  0  0
    3.3917   -4.1667    0.0000 C   0  0  0  0  0  0  0  0  0  0  0  0
    1.2458   -4.5875    0.0000 O   0  0  0  0  0  0  0  0  0  0  0  0
    7.7583   -1.0833    0.0000 C   0  0  0  0  0  0  0  0  0  0  0  0
    2.6792   -4.5833    0.0000 O   0  0  0  0  0  0  0  0  0  0  0  0
    4.1042   -2.9292    0.0000 C   0  0  0  0  0  0  0  0  0  0  0  0
    5.5250   -4.5833    0.0000 C   0  0  0  0  0  0  0  0  0  0  0  0
    8.5417   -0.5833    0.0000 C   0  0  0  0  0  0  0  0  0  0  0  0
    0.5333   -5.8250    0.0000 C   0  0  0  0  0  0  0  0  0  0  0  0
    8.8708   -2.5583    0.0000 O   0  0  0  0  0  0  0  0  0  0  0  0
    0.5292   -5.0000    0.0000 C   0  0  0  0  0  0  0  0  0  0  0  0
    3.3917   -3.3417    0.0000 C   0  0  0  0  0  0  0  0  0  0  0  0
    9.3667   -1.7167    0.0000 O   0  0  0  0  0  0  0  0  0  0  0  0
    2.6792   -6.2333    0.0000 O   0  0  0  0  0  0  0  0  0  0  0  0
    6.9542   -3.7750    0.0000 C   0  0  0  0  0  0  0  0  0  0  0  0
    6.9625   -1.3000    0.0000 C   0  0  0  0  0  0  0  0  0  0  0  0
    4.8250   -1.6917    0.0000 O   0  0  0  0  0  0  0  0  0  0  0  0
    1.2542   -7.0625    0.0000 O   0  0  0  0  0  0  0  0  0  0  0  0
   10.9750   -1.5833    0.0000 C   0  0  0  0  0  0  0  0  0  0  0  0
   11.7250   -0.4583    0.0000 C   0  0  0  0  0  0  0  0  0  0  0  0
   -0.1750   -6.2417    0.0000 O   0  0  0  0  0  0  0  0  0  0  0  0
    3.6875   -5.2917    0.0000 C   0  0  0  0  0  0  0  0  0  0  0  0
    4.5125   -5.2917    0.0000 C   0  0  0  0  0  0  0  0  0  0  0  0
    7.1375   -0.5500    0.0000 C   0  0  0  0  0  0  0  0  0  0  0  0
  2  1  1  0
  3  1  1  0
  4  3  1  0
  5 19  1  0
  6  7  1  0
  7 21  1  0
  8  7  1  0
  1  9  1  1
 10  2  1  0
 11 15  1  0
 12  1  1  0
 13 17  1  0
 14  5  1  0
 15 25  1  1
 16 10  1  0
 17  4  1  0
 18  3  2  0
 19 12  1  0
 20 11  1  0
 21 28  1  0
 22 16  1  0
 23 15  1  0
 14 24  1  0
 22 25  1  1
  2 26  1  6
 27 10  1  0
 28 24  1  0
 29 31  1  0
 30 13  2  0
 31 23  1  0
 32 26  1  0
 33 21  2  0
 11 34  1  6
  4 35  1  6
  5 36  1  1
 12 37  1  1
 20 38  1  1
 39  8  1  0
 40  8  1  0
 29 41  1  6
 42 16  1  0
 43 16  1  0
 24 44  1  6
  2  9  1  0
 18 27  1  0
 22 32  1  0
  4  5  1  0
 14 13  1  1
 20 29  1  0
  6  8  1  0
M  END
>  <ID>  (2001) 


>  <MOLENAME>  (2001) 
CIMICIFUGOSIDE H1

>  <therap>  (2001) 
estrogen

>  <ref>  (2001) 
Chem Pharm Bull 43:771 (1995); Tetrahedron 51:1143 (1995); J Pharmacol Exp Therap 309:641 (2004)

>  <cas#>  (2001) 
163046-73-9 

>  <source>  (2001) 
Cimicifuga simplex

>  <status>  (2001) 
experimental

>  <tradename>  (2001) 
nan

>  <SMILES>  (2001) 
C[C@H](CC(=O)C1OC1(C)C)[C@H]1C(=O)C[C@@]2(C)C3=CCC4C(C)(C)[C@@H](O[C@@H]5OC[C@@H](O)[C@H](O)[C@H]5O)CC[C@@]45C[C@@]35[C@@H](O)C[C@]12C

>  <standardized_failed>  (2001) 
False

$$$$

     RDKit          2D

 34 38  0  0  0  0  0  0  0  0999 V2000
    1.5250   -1.3500    0.0000 C   0  0  0  0  0  0  0  0  0  0  0  0
    3.3500   -1.3500    0.0000 C   0  0  0  0  0  0  0  0  0  0  0  0
    4.2792   -0.8125    0.0000 C   0  0  0  0  0  0  0  0  0  0  0  0
    1.5250   -2.3917    0.0000 C   0  0  0  0  0  0  0  0  0  0  0  0
    4.2792    0.2708    0.0000 C   0  0  0  0  0  0  0  0  0  0  0  0
    0.5917   -2.9500    0.0000 C   0  0  0  0  0  0  0  0  0  0  0  0
    2.4292   -0.8125    0.0000 C   0  0  0  0  0  0  0  0  0  0  0  0
    0.5917   -0.8125    0.0000 C   0  0  0  0  0  0  0  0  0  0  0  0
   -0.3250   -1.3500    0.0000 C   0  0  0  0  0  0  0  0  0  0  0  0
    5.2000    0.8083    0.0000 C   0  0  0  0  0  0  0  0  0  0  0  0
   -0.3250   -2.3917    0.0000 C   0  0  0  0  0  0  0  0  0  0  0  0
    3.3500   -3.3917    0.0000 C   0  0  0  0  0  0  0  0  0  0  0  0
    5.1917    1.6333    0.0000 C   0  0  0  0  0  0  0  0  0  0  0  0
    6.1417    0.2708    0.0000 O   0  0  0  0  0  0  0  0  0  0  0  0
    3.3500    0.8083    0.0000 C   0  0  0  0  0  0  0  0  0  0  0  0
    2.4292    0.2708    0.0000 C   0  0  0  0  0  0  0  0  0  0  0  0
    5.2000   -1.3500    0.0000 C   0  0  0  0  0  0  0  0  0  0  0  0
    6.1417   -0.8125    0.0000 C   0  0  0  0  0  0  0  0  0  0  0  0
    0.5917    0.2708    0.0000 C   0  0  0  0  0  0  0  0  0  0  0  0
   -0.3208    0.8083    0.0000 C   0  0  0  0  0  0  0  0  0  0  0  0
    2.3792   -2.9000    0.0000 O   0  0  0  0  0  0  0  0  0  0  0  0
    5.8917    2.3958    0.0000 C   0  0  0  0  0  0  0  0  0  0  0  0
    4.1917    2.1208    0.0000 C   0  0  0  0  0  0  0  0  0  0  0  0
    5.3917    3.3458    0.0000 O   0  0  0  0  0  0  0  0  0  0  0  0
    4.3542    3.1458    0.0000 C   0  0  0  0  0  0  0  0  0  0  0  0
   -0.3208    1.8708    0.0000 O   0  0  0  0  0  0  0  0  0  0  0  0
    0.5292   -1.8625    0.0000 C   0  0  0  0  0  0  0  0  0  0  0  0
   -1.2083   -2.8625    0.0000 O   0  0  0  0  0  0  0  0  0  0  0  0
    4.2792    1.3500    0.0000 C   0  0  0  0  0  0  0  0  0  0  0  0
   -0.3250   -0.3125    0.0000 C   0  0  0  0  0  0  0  0  0  0  0  0
   -1.1208   -1.8500    0.0000 C   0  0  0  0  0  0  0  0  0  0  0  0
    7.0792   -1.3500    0.0000 O   0  0  0  0  0  0  0  0  0  0  0  0
   -1.2208    0.2708    0.0000 O   0  0  0  0  0  0  0  0  0  0  0  0
   -2.0708    0.7583    0.0000 C   0  0  0  0  0  0  0  0  0  0  0  0
  2  7  1  0
  3  2  2  0
  1  4  1  0
  5 15  1  0
  6  4  1  0
  7  1  1  0
  8  1  1  0
  9  8  1  0
 10  5  1  0
 11  9  1  0
 12  2  1  0
 10 13  1  0
 10 14  1  6
 15 16  1  0
 16  7  1  0
 17  3  1  0
 18 17  1  0
  8 19  1  6
 20 19  1  0
 21  4  2  0
 22 13  2  0
 23 13  1  0
 24 22  1  0
 25 23  2  0
 26 20  2  0
  1 27  1  1
 11 28  1  6
  5 29  1  6
 30  9  1  0
 31  9  1  0
 32 18  1  0
 33 20  1  0
 34 33  1  0
  6 11  1  0
  6 12  1  1
  5  3  1  0
 14 18  1  0
 25 24  1  0
M  END
>  <ID>  (2002) 


>  <MOLENAME>  (2002) 
3.16-DIDEOXYMEXICANOLIDE-3beta-DIOL

>  <therap>  (2002) 
nan

>  <ref>  (2002) 
Taylor (unpublished)

>  <cas#>  (2002) 
nan

>  <source>  (2002) 
derivative

>  <status>  (2002) 
undetermined activity

>  <tradename>  (2002) 
nan

>  <SMILES>  (2002) 
COC(=O)C[C@H]1C(C)(C)[C@@H](O)[C@@H]2CC3=C4CC(O)O[C@@H](c5cocc5)[C@]4(C)CCC3[C@]1(C)C2=O

>  <standardized_failed>  (2002) 
False

$$$$

     RDKit          2D

 42 44  0  0  0  0  0  0  0  0999 V2000
    5.3250   -2.8167    0.0000 C   0  0  0  0  0  0  0  0  0  0  0  0
    6.1417   -2.8167    0.0000 C   0  0  0  0  0  0  0  0  0  0  0  0
    7.3792   -3.5292    0.0000 C   0  0  0  0  0  0  0  0  0  0  0  0
    4.0875   -2.1125    0.0000 C   0  0  0  0  0  0  0  0  0  0  0  0
    7.7917   -4.2375    0.0000 C   0  0  0  0  0  0  0  0  0  0  0  0
    3.6750   -1.4042    0.0000 C   0  0  0  0  0  0  0  0  0  0  0  0
    7.7917   -2.8167    0.0000 C   0  0  0  0  0  0  0  0  0  0  0  0
    3.6792   -2.8250    0.0000 C   0  0  0  0  0  0  0  0  0  0  0  0
    4.9125   -2.1042    0.0000 C   0  0  0  0  0  0  0  0  0  0  0  0
    6.5542   -3.5292    0.0000 C   0  0  0  0  0  0  0  0  0  0  0  0
    9.0167   -3.5167    0.0000 C   0  0  0  0  0  0  0  0  0  0  0  0
    2.4542   -2.1292    0.0000 C   0  0  0  0  0  0  0  0  0  0  0  0
    2.8542   -1.4125    0.0000 C   0  0  0  0  0  0  0  0  0  0  0  0
    8.6125   -4.2375    0.0000 C   0  0  0  0  0  0  0  0  0  0  0  0
    8.6042   -2.8167    0.0000 C   0  0  0  0  0  0  0  0  0  0  0  0
    2.8667   -2.8292    0.0000 C   0  0  0  0  0  0  0  0  0  0  0  0
    4.9125   -3.5292    0.0000 C   0  0  0  0  0  0  0  0  0  0  0  0
    6.5542   -2.1042    0.0000 C   0  0  0  0  0  0  0  0  0  0  0  0
    4.0875   -3.5292    0.0000 C   0  0  0  0  0  0  0  0  0  0  0  0
    7.3792   -2.1000    0.0000 C   0  0  0  0  0  0  0  0  0  0  0  0
    4.0792   -0.6917    0.0000 C   0  0  0  0  0  0  0  0  0  0  0  0
    7.3792   -4.9542    0.0000 C   0  0  0  0  0  0  0  0  0  0  0  0
    4.3292   -5.9292    0.0000 C   0  0  0  0  0  0  0  0  0  0  0  0
    4.3292   -5.1042    0.0000 O   0  0  0  0  0  0  0  0  0  0  0  0
    5.3250   -1.3917    0.0000 O   0  0  0  0  0  0  0  0  0  0  0  0
    6.1417   -4.2417    0.0000 O   0  0  0  0  0  0  0  0  0  0  0  0
    1.6292   -2.1292    0.0000 O   0  0  0  0  0  0  0  0  0  0  0  0
    9.8417   -3.5167    0.0000 O   0  0  0  0  0  0  0  0  0  0  0  0
    9.0167   -2.1000    0.0000 C   0  0  0  0  0  0  0  0  0  0  0  0
    2.4625   -3.5417    0.0000 C   0  0  0  0  0  0  0  0  0  0  0  0
    6.5542   -4.9542    0.0000 O   0  0  0  0  0  0  0  0  0  0  0  0
    4.9042   -0.6875    0.0000 O   0  0  0  0  0  0  0  0  0  0  0  0
    9.0250   -4.9500    0.0000 O   0  0  0  0  0  0  0  0  0  0  0  0
    2.4417   -0.7000    0.0000 O   0  0  0  0  0  0  0  0  0  0  0  0
    5.0417   -6.3417    0.0000 O   0  0  0  0  0  0  0  0  0  0  0  0
    5.3250   -4.2417    0.0000 C   0  0  0  0  0  0  0  0  0  0  0  0
    6.1417   -1.3917    0.0000 C   0  0  0  0  0  0  0  0  0  0  0  0
    3.6167   -6.3417    0.0000 C   0  0  0  0  0  0  0  0  0  0  0  0
    8.6000   -1.3875    0.0000 C   0  0  0  0  0  0  0  0  0  0  0  0
    9.8417   -2.0917    0.0000 C   0  0  0  0  0  0  0  0  0  0  0  0
    1.6375   -3.5542    0.0000 C   0  0  0  0  0  0  0  0  0  0  0  0
    2.8792   -4.2542    0.0000 C   0  0  0  0  0  0  0  0  0  0  0  0
  2  1  1  0
  3 10  1  0
  4  9  1  0
  5  3  2  0
  6  4  2  0
  7 20  1  0
  8 19  1  0
  9  1  2  0
 10  2  2  0
 11 15  1  0
 12 16  1  0
 13  6  1  0
 14  5  1  0
 15  7  2  0
 16  8  2  0
 17  1  1  0
 18  2  1  0
 19 17  2  0
 20 18  2  0
 21  6  1  0
 22  5  1  0
 24 23  2  0
 25  9  1  0
 26 10  1  0
 27 12  1  0
 28 11  1  0
 29 15  1  0
 30 16  1  0
 31 22  2  0
 32 21  2  0
 33 14  1  0
 34 13  1  0
 35 23  1  0
 36 17  1  0
 37 18  1  0
 38 23  1  0
 39 29  1  0
 40 29  1  0
 41 30  1  0
 42 30  1  0
  8  4  1  0
  3  7  1  0
 12 13  2  0
 11 14  2  0
M  END
>  <ID>  (2003) 


>  <MOLENAME>  (2003) 
GOSSYPOL-ACETIC ACID COMPLEX

>  <therap>  (2003) 
male contraceptive

>  <ref>  (2003) 
nan

>  <cas#>  (2003) 
nan

>  <source>  (2003) 
Gossypium spp

>  <status>  (2003) 
experimental

>  <tradename>  (2003) 
nan

>  <SMILES>  (2003) 
Cc1cc2c(C(C)C)c(O)c(O)c(C=O)c2c(O)c1-c1c(O)c2c(C=O)c(O)c(O)c(C(C)C)c2cc1C

>  <standardized_failed>  (2003) 
False

$$$$

     RDKit          2D

 10  9  0  0  0  0  0  0  0  0999 V2000
    1.2375   -1.7500    0.0000 C   0  0  0  0  0  0  0  0  0  0  0  0
   -1.5208   -1.2042    0.0000 C   0  0  0  0  0  0  0  0  0  0  0  0
    1.2375   -0.9292    0.0000 O   0  0  0  0  0  0  0  0  0  0  0  0
    0.4625   -2.0292    0.0000 C   0  0  0  0  0  0  0  0  0  0  0  0
   -1.2333   -0.4000    0.0000 O   0  0  0  0  0  0  0  0  0  0  0  0
   -0.2208   -1.5667    0.0000 C   0  0  0  0  0  0  0  0  0  0  0  0
   -1.0000   -1.8417    0.0000 C   0  0  0  0  0  0  0  0  0  0  0  0
   -2.3375   -1.3375    0.0000 N   0  0  0  0  0  0  0  0  0  0  0  0
    1.9125   -2.2250    0.0000 O   0  0  0  0  0  0  0  0  0  0  0  0
    0.4500   -2.8167    0.0000 N   0  0  0  0  0  0  0  0  0  0  0  0
  2  7  1  0
  3  1  2  0
  4  1  1  0
  5  2  2  0
  4  6  1  0
  7  6  1  0
  8  2  1  0
  9  1  1  0
  4 10  1  1
M  END
>  <ID>  (2004) 


>  <MOLENAME>  (2004) 
GLUTAMINE (D)

>  <therap>  (2004) 
nan

>  <ref>  (2004) 
Chirality (1996), 8(1), 24-9; Brain Res. (1986), 367(1-2), 395-7; Jpn. J. Exp. Med. (1981), 51(6), 363-6

>  <cas#>  (2004) 
6899-04-3

>  <source>  (2004) 
distributed in plants

>  <status>  (2004) 
experimental

>  <tradename>  (2004) 
nan

>  <SMILES>  (2004) 
NC(=O)CC[C@H](N)C(=O)O

>  <standardized_failed>  (2004) 
False

$$$$

     RDKit          2D

 16 17  0  0  0  0  0  0  0  0999 V2000
    6.1250   -1.3167    0.0000 C   0  0  0  0  0  0  0  0  0  0  0  0
    6.8375   -2.5542    0.0000 C   0  0  0  0  0  0  0  0  0  0  0  0
    6.8375   -0.9000    0.0000 O   0  0  0  0  0  0  0  0  0  0  0  0
    7.5542   -1.3125    0.0000 C   0  0  0  0  0  0  0  0  0  0  0  0
    6.1250   -2.1417    0.0000 C   0  0  0  0  0  0  0  0  0  0  0  0
    7.5542   -2.1417    0.0000 C   0  0  0  0  0  0  0  0  0  0  0  0
    5.4125   -0.9042    0.0000 C   0  0  0  0  0  0  0  0  0  0  0  0
    5.4125   -2.5542    0.0000 C   0  0  0  0  0  0  0  0  0  0  0  0
    3.9833   -0.0792    0.0000 C   0  0  0  0  0  0  0  0  0  0  0  0
    4.7000   -1.3167    0.0000 C   0  0  0  0  0  0  0  0  0  0  0  0
    3.9833   -0.9042    0.0000 O   0  0  0  0  0  0  0  0  0  0  0  0
    8.2667   -0.8958    0.0000 O   0  0  0  0  0  0  0  0  0  0  0  0
    4.7000    0.3333    0.0000 O   0  0  0  0  0  0  0  0  0  0  0  0
    4.7000   -2.1417    0.0000 C   0  0  0  0  0  0  0  0  0  0  0  0
    6.8375   -3.3792    0.0000 C   0  0  0  0  0  0  0  0  0  0  0  0
    3.2708    0.3333    0.0000 C   0  0  0  0  0  0  0  0  0  0  0  0
  2  5  1  0
  3  1  1  0
  4  3  1  0
  5  1  2  0
  6  2  2  0
  7  1  1  0
  8  5  1  0
  9 11  1  0
 10  7  2  0
 11 10  1  0
 12  4  2  0
 13  9  2  0
 14 10  1  0
 15  2  1  0
 16  9  1  0
  8 14  2  0
  4  6  1  0
M  END
>  <ID>  (2005) 


>  <MOLENAME>  (2005) 
ACETYL HYMETOCHROME

>  <therap>  (2005) 
nan

>  <ref>  (2005) 
Indian J Chem B 15:94 (1977)

>  <cas#>  (2005) 
2747-05-9

>  <source>  (2005) 
Trigonella foenumgraecum

>  <status>  (2005) 
undetermined activity

>  <tradename>  (2005) 
nan

>  <SMILES>  (2005) 
CC(=O)Oc1cc2c(cc1)c(C)cc(=O)o2

>  <standardized_failed>  (2005) 
False

$$$$

     RDKit          2D

  6  6  0  0  0  0  0  0  0  0999 V2000
    1.7500   -1.8417    0.0000 N   0  0  0  0  0  0  0  0  0  0  0  0
    1.0766   -2.3284    0.0000 C   0  0  0  0  0  0  0  0  0  0  0  0
    1.3333   -3.1167    0.0000 C   0  0  0  0  0  0  0  0  0  0  0  0
    2.1625   -3.1167    0.0000 N   0  0  0  0  0  0  0  0  0  0  0  0
    2.4193   -2.3284    0.0000 C   0  0  0  0  0  0  0  0  0  0  0  0
    0.8486   -3.7843    0.0000 C   0  0  0  0  0  0  0  0  0  0  0  0
  1  2  1  0
  3  4  1  0
  4  5  2  0
  5  1  1  0
  2  3  2  0
  3  6  1  0
M  END
>  <ID>  (2006) 


>  <MOLENAME>  (2006) 
4-METHYLIMIDAZOLE

>  <therap>  (2006) 
nan

>  <ref>  (2006) 
Phytochemistry 21:2379 (1982)

>  <cas#>  (2006) 
822-36-6

>  <source>  (2006) 
Sophora flavesens

>  <status>  (2006) 
nan

>  <tradename>  (2006) 
nan

>  <SMILES>  (2006) 
Cc1c[nH]cn1

>  <standardized_failed>  (2006) 
False

$$$$

     RDKit          2D

 36 39  0  0  0  0  0  0  0  0999 V2000
    4.4667   -4.3917    0.0000 C   0  0  0  0  0  0  0  0  0  0  0  0
    6.2417   -4.1750    0.0000 C   0  0  0  0  0  0  0  0  0  0  0  0
    5.3917   -4.7292    0.0000 O   0  0  0  0  0  0  0  0  0  0  0  0
    4.9792   -3.4542    0.0000 O   0  0  0  0  0  0  0  0  0  0  0  0
    4.0625   -3.6750    0.0000 O   0  0  0  0  0  0  0  0  0  0  0  0
    5.8250   -3.4500    0.0000 C   0  0  0  0  0  0  0  0  0  0  0  0
    9.1542   -3.4417    0.0000 C   0  0  0  0  0  0  0  0  0  0  0  0
    4.0625   -5.1042    0.0000 C   0  0  0  0  0  0  0  0  0  0  0  0
    7.5042   -3.4417    0.0000 C   0  0  0  0  0  0  0  0  0  0  0  0
    7.0792   -4.1667    0.0000 C   0  0  0  0  0  0  0  0  0  0  0  0
    3.2375   -3.6750    0.0000 C   0  0  0  0  0  0  0  0  0  0  0  0
    3.2375   -5.1042    0.0000 C   0  0  0  0  0  0  0  0  0  0  0  0
    2.8167   -4.3917    0.0000 C   0  0  0  0  0  0  0  0  0  0  0  0
    8.3292   -3.4417    0.0000 O   0  0  0  0  0  0  0  0  0  0  0  0
    7.0792   -2.7167    0.0000 O   0  0  0  0  0  0  0  0  0  0  0  0
    9.5625   -4.1542    0.0000 C   0  0  0  0  0  0  0  0  0  0  0  0
    9.5625   -2.7250    0.0000 C   0  0  0  0  0  0  0  0  0  0  0  0
    6.2292   -2.7167    0.0000 C   0  0  0  0  0  0  0  0  0  0  0  0
   10.3792   -4.1542    0.0000 C   0  0  0  0  0  0  0  0  0  0  0  0
   10.3875   -2.7292    0.0000 C   0  0  0  0  0  0  0  0  0  0  0  0
   10.8000   -3.4417    0.0000 C   0  0  0  0  0  0  0  0  0  0  0  0
    2.8250   -2.9625    0.0000 C   0  0  0  0  0  0  0  0  0  0  0  0
    4.4750   -5.8167    0.0000 O   0  0  0  0  0  0  0  0  0  0  0  0
    7.5000   -4.8792    0.0000 O   0  0  0  0  0  0  0  0  0  0  0  0
    2.8250   -5.8167    0.0000 O   0  0  0  0  0  0  0  0  0  0  0  0
    1.9917   -4.3917    0.0000 O   0  0  0  0  0  0  0  0  0  0  0  0
   10.7917   -4.8667    0.0000 N   0  0  0  0  0  0  0  0  0  0  0  0
   10.8042   -2.0167    0.0000 N   0  0  0  0  0  0  0  0  0  0  0  0
    9.1500   -2.0125    0.0000 O   0  0  0  0  0  0  0  0  0  0  0  0
    9.1500   -4.8667    0.0000 O   0  0  0  0  0  0  0  0  0  0  0  0
    3.2375   -2.2417    0.0000 N   0  0  0  0  0  0  0  0  0  0  0  0
    5.8167   -2.0042    0.0000 C   0  0  0  0  0  0  0  0  0  0  0  0
    6.2250   -1.2875    0.0000 O   0  0  0  0  0  0  0  0  0  0  0  0
    1.5875   -2.2417    0.0000 O   0  0  0  0  0  0  0  0  0  0  0  0
    2.0000   -2.9625    0.0000 C   0  0  0  0  0  0  0  0  0  0  0  0
   10.3792   -5.5875    0.0000 C   0  0  0  0  0  0  0  0  0  0  0  0
  2  3  1  1
  3  1  1  0
  4  1  1  0
  5  1  1  0
  6  4  1  1
  7 14  1  6
  8  1  1  0
  9 10  1  0
 10  2  1  0
 11  5  1  0
 12  8  1  0
 13 12  1  0
  9 14  1  1
 15 18  1  0
 16  7  1  0
 17  7  1  0
 18  6  1  0
 19 16  1  0
 20 17  1  0
 21 20  1  0
 11 22  1  1
  8 23  1  6
 10 24  1  1
 12 25  1  1
 13 26  1  1
 19 27  1  6
 20 28  1  6
 17 29  1  1
 16 30  1  1
 31 22  1  0
 18 32  1  1
 33 32  1  0
 34 35  1  0
 35 22  1  0
 36 27  1  0
  2  6  1  0
 13 11  1  0
 15  9  1  0
 21 19  1  0
M  END
>  <ID>  (2007) 


>  <MOLENAME>  (2007) 
HYGROMYCIN B

>  <therap>  (2007) 
antibacterial, anthelmintic; LD50 ip (rat) 63mg/Kg

>  <ref>  (2007) 
JACS 80:2714 (1958); J Org Chem 27:2793 (1962); Anal Biochem 1963:303;Tetrahedron 35:1207 (1979)

>  <cas#>  (2007) 
31282-04-9

>  <source>  (2007) 
Streptomyces hygroscopicus

>  <status>  (2007) 
agricultural use

>  <tradename>  (2007) 
nan

>  <SMILES>  (2007) 
CN[C@H]1C[C@@H](N)[C@H](O)[C@@H](O[C@@H]2O[C@H](CO)[C@@H]3OC4(O[C@@H]3[C@@H]2O)O[C@H](C(N)CO)[C@H](O)[C@H](O)[C@H]4O)[C@@H]1O

>  <standardized_failed>  (2007) 
False

$$$$

     RDKit          2D

 16 18  0  0  0  0  0  0  0  0999 V2000
    7.1667   -3.6125    0.0000 C   0  0  0  0  0  0  0  0  0  0  0  0
    6.4542   -4.0167    0.0000 N   0  0  0  0  0  0  0  0  0  0  0  0
    7.1750   -2.7792    0.0000 C   0  0  0  0  0  0  0  0  0  0  0  0
    5.7417   -3.6000    0.0000 C   0  0  0  0  0  0  0  0  0  0  0  0
    5.7417   -2.7750    0.0000 C   0  0  0  0  0  0  0  0  0  0  0  0
    7.8792   -4.0292    0.0000 C   0  0  0  0  0  0  0  0  0  0  0  0
    8.6000   -3.6250    0.0000 N   0  0  0  0  0  0  0  0  0  0  0  0
    5.0292   -4.0042    0.0000 C   0  0  0  0  0  0  0  0  0  0  0  0
    5.0292   -2.3625    0.0000 C   0  0  0  0  0  0  0  0  0  0  0  0
    4.3250   -3.6000    0.0000 C   0  0  0  0  0  0  0  0  0  0  0  0
    7.8917   -2.3750    0.0000 C   0  0  0  0  0  0  0  0  0  0  0  0
    8.6042   -2.7917    0.0000 C   0  0  0  0  0  0  0  0  0  0  0  0
    4.3250   -2.7750    0.0000 C   0  0  0  0  0  0  0  0  0  0  0  0
    3.6042   -4.0167    0.0000 O   0  0  0  0  0  0  0  0  0  0  0  0
    7.8667   -4.8542    0.0000 C   0  0  0  0  0  0  0  0  0  0  0  0
    2.8917   -3.6042    0.0000 C   0  0  0  0  0  0  0  0  0  0  0  0
  2  1  1  0
  3  1  2  0
  4  2  1  0
  5  3  1  0
  6  1  1  0
  7  6  2  0
  8  4  2  0
  9  5  2  0
 10  8  1  0
 11  3  1  0
 12  7  1  0
 13  9  1  0
 14 10  1  0
 15  6  1  0
 16 14  1  0
  5  4  1  0
 11 12  1  0
 10 13  2  0
M  END
>  <ID>  (2008) 


>  <MOLENAME>  (2008) 
HARMALINE

>  <therap>  (2008) 
CNS stimulant, antiparkinsonian agent

>  <ref>  (2008) 
Ber 63:120 (1930)

>  <cas#>  (2008) 
304-21-2

>  <source>  (2008) 
Peganium harmala

>  <status>  (2008) 
experimental

>  <tradename>  (2008) 
nan

>  <SMILES>  (2008) 
COc1ccc2c3c([nH]c2c1)C(C)=NCC3

>  <standardized_failed>  (2008) 
False

$$$$

     RDKit          2D

 22 24  0  0  0  0  0  0  0  0999 V2000
    5.7375   -2.5667    0.0000 C   0  0  0  0  0  0  0  0  0  0  0  0
    5.7375   -3.3917    0.0000 C   0  0  0  0  0  0  0  0  0  0  0  0
    6.4500   -3.8000    0.0000 C   0  0  0  0  0  0  0  0  0  0  0  0
    5.0250   -2.1500    0.0000 C   0  0  0  0  0  0  0  0  0  0  0  0
    4.3125   -2.5667    0.0000 C   0  0  0  0  0  0  0  0  0  0  0  0
    6.4500   -2.1500    0.0000 O   0  0  0  0  0  0  0  0  0  0  0  0
    7.1625   -2.5625    0.0000 C   0  0  0  0  0  0  0  0  0  0  0  0
    7.1625   -3.3875    0.0000 C   0  0  0  0  0  0  0  0  0  0  0  0
    5.0250   -3.8000    0.0000 C   0  0  0  0  0  0  0  0  0  0  0  0
    4.3125   -3.3917    0.0000 C   0  0  0  0  0  0  0  0  0  0  0  0
    6.4417   -4.6250    0.0000 C   0  0  0  0  0  0  0  0  0  0  0  0
    7.8750   -2.1500    0.0000 O   0  0  0  0  0  0  0  0  0  0  0  0
    5.0250   -1.3250    0.0000 O   0  0  0  0  0  0  0  0  0  0  0  0
    3.6000   -2.1542    0.0000 O   0  0  0  0  0  0  0  0  0  0  0  0
    3.6000   -3.8042    0.0000 O   0  0  0  0  0  0  0  0  0  0  0  0
    5.7250   -5.0292    0.0000 C   0  0  0  0  0  0  0  0  0  0  0  0
    7.1625   -5.0292    0.0000 C   0  0  0  0  0  0  0  0  0  0  0  0
    5.7375   -0.9125    0.0000 C   0  0  0  0  0  0  0  0  0  0  0  0
    3.5917   -1.3292    0.0000 C   0  0  0  0  0  0  0  0  0  0  0  0
    5.7250   -5.8542    0.0000 C   0  0  0  0  0  0  0  0  0  0  0  0
    7.1542   -5.8625    0.0000 C   0  0  0  0  0  0  0  0  0  0  0  0
    6.4375   -6.2667    0.0000 C   0  0  0  0  0  0  0  0  0  0  0  0
  2  1  1  0
  3  2  1  0
  4  1  2  0
  5  4  1  0
  6  1  1  0
  7  6  1  0
  8  7  1  0
  9  2  2  0
 10  5  2  0
 11  3  1  0
 12  7  2  0
 13  4  1  0
 14  5  1  0
 15 10  1  0
 16 11  2  0
 17 11  1  0
 18 13  1  0
 19 14  1  0
 20 16  1  0
 21 17  2  0
 22 21  1  0
  8  3  2  0
 10  9  1  0
 20 22  2  0
M  END
>  <ID>  (2009) 


>  <MOLENAME>  (2009) 
KUHLMANNIN

>  <therap>  (2009) 
nan

>  <ref>  (2009) 
Phytochemistry 17: 1383 (1978)

>  <cas#>  (2009) 
nan

>  <source>  (2009) 
Manchaerium spp

>  <status>  (2009) 
undetermined activity

>  <tradename>  (2009) 
nan

>  <SMILES>  (2009) 
COc1c(O)cc2c(-c3ccccc3)cc(=O)oc2c1OC

>  <standardized_failed>  (2009) 
False

$$$$

     RDKit          2D

 23 24  0  0  0  0  0  0  0  0999 V2000
    1.1917   -1.9167    0.0000 C   0  0  0  0  0  0  0  0  0  0  0  0
    4.7792    0.1750    0.0000 C   0  0  0  0  0  0  0  0  0  0  0  0
    0.4792   -2.3292    0.0000 C   0  0  0  0  0  0  0  0  0  0  0  0
    4.7792   -0.6500    0.0000 C   0  0  0  0  0  0  0  0  0  0  0  0
    1.1917   -1.0875    0.0000 C   0  0  0  0  0  0  0  0  0  0  0  0
    3.3375    0.1708    0.0000 O   0  0  0  0  0  0  0  0  0  0  0  0
    0.4792   -0.6750    0.0000 O   0  0  0  0  0  0  0  0  0  0  0  0
    4.0500    0.5833    0.0000 C   0  0  0  0  0  0  0  0  0  0  0  0
    4.0667   -1.0667    0.0000 C   0  0  0  0  0  0  0  0  0  0  0  0
   -0.2375   -1.9167    0.0000 C   0  0  0  0  0  0  0  0  0  0  0  0
    3.3417   -0.6625    0.0000 C   0  0  0  0  0  0  0  0  0  0  0  0
   -0.2375   -1.0875    0.0000 C   0  0  0  0  0  0  0  0  0  0  0  0
    1.9125   -0.6667    0.0000 O   0  0  0  0  0  0  0  0  0  0  0  0
    2.6292   -1.0792    0.0000 C   0  0  0  0  0  0  0  0  0  0  0  0
    5.5042    0.6000    0.0000 O   0  0  0  0  0  0  0  0  0  0  0  0
    1.9125   -2.3375    0.0000 O   0  0  0  0  0  0  0  0  0  0  0  0
    5.5125   -1.0500    0.0000 O   0  0  0  0  0  0  0  0  0  0  0  0
    0.4792   -3.1542    0.0000 O   0  0  0  0  0  0  0  0  0  0  0  0
    4.0750   -1.8917    0.0000 O   0  0  0  0  0  0  0  0  0  0  0  0
   -0.9583   -2.3375    0.0000 O   0  0  0  0  0  0  0  0  0  0  0  0
    4.0292    1.4083    0.0000 O   0  0  0  0  0  0  0  0  0  0  0  0
   -0.9583   -0.6667    0.0000 C   0  0  0  0  0  0  0  0  0  0  0  0
   -0.9583    0.1625    0.0000 O   0  0  0  0  0  0  0  0  0  0  0  0
  2  4  1  0
  3  1  1  0
  4  9  1  0
  5  1  1  0
  6 11  1  0
  7  5  1  0
  8  6  1  0
  9 11  1  0
 10  3  1  0
 11 14  1  1
 12  7  1  0
  5 13  1  6
 14 13  1  0
  2 15  1  6
  1 16  1  6
  4 17  1  1
  3 18  1  1
  9 19  1  6
 10 20  1  1
  8 21  1  1
 12 22  1  1
 23 22  1  0
 10 12  1  0
  8  2  1  0
M  END
>  <ID>  (2010) 


>  <MOLENAME>  (2010) 
MELIBIOSE

>  <therap>  (2010) 
nan

>  <ref>  (2010) 
JACS 37:2734 (1915); J Chem Soc 113:188 (1918)

>  <cas#>  (2010) 
585-99-9

>  <source>  (2010) 
yeast

>  <status>  (2010) 
undetermined activity

>  <tradename>  (2010) 
nan

>  <SMILES>  (2010) 
OC[C@H]1O[C@H](OC[C@H]2O[C@@H](O)[C@H](O)[C@@H](O)[C@@H]2O)[C@H](O)[C@@H](O)[C@H]1O

>  <standardized_failed>  (2010) 
False

$$$$

     RDKit          2D

 19 21  0  0  0  0  0  0  0  0999 V2000
    3.2167   -0.8292    0.0000 C   0  0  0  0  0  0  0  0  0  0  0  0
    3.2167   -0.0042    0.0000 C   0  0  0  0  0  0  0  0  0  0  0  0
    2.5042    0.4125    0.0000 O   0  0  0  0  0  0  0  0  0  0  0  0
    2.5042   -1.2417    0.0000 C   0  0  0  0  0  0  0  0  0  0  0  0
    1.7917   -0.0042    0.0000 C   0  0  0  0  0  0  0  0  0  0  0  0
    1.7875   -0.8292    0.0000 C   0  0  0  0  0  0  0  0  0  0  0  0
    1.0750    0.4083    0.0000 C   0  0  0  0  0  0  0  0  0  0  0  0
    1.0750   -1.2417    0.0000 C   0  0  0  0  0  0  0  0  0  0  0  0
    3.9375    0.4083    0.0000 C   0  0  0  0  0  0  0  0  0  0  0  0
    2.5000   -2.0667    0.0000 O   0  0  0  0  0  0  0  0  0  0  0  0
    3.9292   -1.2417    0.0000 O   0  0  0  0  0  0  0  0  0  0  0  0
    0.3625   -0.0042    0.0000 C   0  0  0  0  0  0  0  0  0  0  0  0
    0.3625   -0.8292    0.0000 C   0  0  0  0  0  0  0  0  0  0  0  0
   -0.3583    0.4083    0.0000 O   0  0  0  0  0  0  0  0  0  0  0  0
    3.9375    1.2250    0.0000 C   0  0  0  0  0  0  0  0  0  0  0  0
    4.6500   -0.0125    0.0000 C   0  0  0  0  0  0  0  0  0  0  0  0
    5.3625    0.3958    0.0000 C   0  0  0  0  0  0  0  0  0  0  0  0
    4.6500    1.6375    0.0000 C   0  0  0  0  0  0  0  0  0  0  0  0
    5.3667    1.2250    0.0000 C   0  0  0  0  0  0  0  0  0  0  0  0
  2  1  2  0
  3  2  1  0
  4  1  1  0
  5  6  2  0
  6  4  1  0
  7  5  1  0
  8  6  1  0
  9  2  1  0
 10  4  2  0
 11  1  1  0
 12 13  1  0
 13  8  2  0
 14 12  1  0
 15  9  2  0
 16  9  1  0
 17 16  2  0
 18 15  1  0
 19 17  1  0
  3  5  1  0
  7 12  2  0
 18 19  2  0
M  END
>  <ID>  (2011) 


>  <MOLENAME>  (2011) 
3.7-DIHYDROXYFLAVONE

>  <therap>  (2011) 
nan

>  <ref>  (2011) 
Phytochemistry 11: 3515 (1972)

>  <cas#>  (2011) 
492-00-2

>  <source>  (2011) 
Platymiscium praecox

>  <status>  (2011) 
undetermined activity

>  <tradename>  (2011) 
nan

>  <SMILES>  (2011) 
O=c1c(O)c(-c2ccccc2)oc2c1ccc(O)c2

>  <standardized_failed>  (2011) 
False

$$$$

     RDKit          2D

 42 47  0  0  0  0  0  0  0  0999 V2000
    7.5792    0.3708    0.0000 C   0  0  0  0  0  0  0  0  0  0  0  0
    6.1542   -2.9417    0.0000 C   0  0  0  0  0  0  0  0  0  0  0  0
    6.8667   -1.7042    0.0000 C   0  0  0  0  0  0  0  0  0  0  0  0
    6.8667   -0.8750    0.0000 C   0  0  0  0  0  0  0  0  0  0  0  0
    6.8667   -3.3542    0.0000 C   0  0  0  0  0  0  0  0  0  0  0  0
    6.8667    0.7833    0.0000 C   0  0  0  0  0  0  0  0  0  0  0  0
    8.3000    0.7833    0.0000 C   0  0  0  0  0  0  0  0  0  0  0  0
    5.4375   -3.3542    0.0000 C   0  0  0  0  0  0  0  0  0  0  0  0
    7.5792   -2.1167    0.0000 C   0  0  0  0  0  0  0  0  0  0  0  0
    6.1542   -0.4625    0.0000 C   0  0  0  0  0  0  0  0  0  0  0  0
    6.1542    0.3708    0.0000 C   0  0  0  0  0  0  0  0  0  0  0  0
    7.5792   -2.9417    0.0000 C   0  0  0  0  0  0  0  0  0  0  0  0
    6.1542   -2.1167    0.0000 C   0  0  0  0  0  0  0  0  0  0  0  0
    7.5792   -0.4625    0.0000 C   0  0  0  0  0  0  0  0  0  0  0  0
    5.4375   -4.1875    0.0000 C   0  0  0  0  0  0  0  0  0  0  0  0
    8.3000    1.6083    0.0000 C   0  0  0  0  0  0  0  0  0  0  0  0
    6.8667    1.6083    0.0000 C   0  0  0  0  0  0  0  0  0  0  0  0
    6.8667   -4.1875    0.0000 C   0  0  0  0  0  0  0  0  0  0  0  0
    6.1542   -4.6000    0.0000 C   0  0  0  0  0  0  0  0  0  0  0  0
    7.5792    2.0208    0.0000 C   0  0  0  0  0  0  0  0  0  0  0  0
    9.0125    2.0208    0.0000 C   0  0  0  0  0  0  0  0  0  0  0  0
    4.7250   -4.6000    0.0000 C   0  0  0  0  0  0  0  0  0  0  0  0
    5.4292   -0.8792    0.0000 O   0  0  0  0  0  0  0  0  0  0  0  0
    8.3042   -1.6917    0.0000 O   0  0  0  0  0  0  0  0  0  0  0  0
    5.4292    0.7875    0.0000 C   0  0  0  0  0  0  0  0  0  0  0  0
    8.3042   -3.3667    0.0000 C   0  0  0  0  0  0  0  0  0  0  0  0
    4.7250   -2.9417    0.0000 C   0  0  0  0  0  0  0  0  0  0  0  0
    9.0125    0.3708    0.0000 C   0  0  0  0  0  0  0  0  0  0  0  0
    8.3000   -0.0500    0.0000 C   0  0  0  0  0  0  0  0  0  0  0  0
    5.4375   -2.5292    0.0000 C   0  0  0  0  0  0  0  0  0  0  0  0
    9.7292    1.6083    0.0000 C   0  0  0  0  0  0  0  0  0  0  0  0
    4.0042   -4.1875    0.0000 C   0  0  0  0  0  0  0  0  0  0  0  0
    4.0042   -3.3542    0.0000 C   0  0  0  0  0  0  0  0  0  0  0  0
    9.7292    0.7833    0.0000 C   0  0  0  0  0  0  0  0  0  0  0  0
    5.3167   -5.1792    0.0000 C   0  0  0  0  0  0  0  0  0  0  0  0
    8.4167    2.6083    0.0000 C   0  0  0  0  0  0  0  0  0  0  0  0
    9.5792    2.6000    0.0000 C   0  0  0  0  0  0  0  0  0  0  0  0
    4.1542   -5.1792    0.0000 C   0  0  0  0  0  0  0  0  0  0  0  0
    5.4375    1.6208    0.0000 C   0  0  0  0  0  0  0  0  0  0  0  0
    8.3000   -4.1917    0.0000 C   0  0  0  0  0  0  0  0  0  0  0  0
    9.0167   -2.9542    0.0000 C   0  0  0  0  0  0  0  0  0  0  0  0
    4.7167    0.3750    0.0000 C   0  0  0  0  0  0  0  0  0  0  0  0
  2 13  2  0
  3  4  1  0
  4 14  1  0
  5  2  1  0
  6  1  1  0
  7  1  1  0
  8  2  1  0
  9  3  2  0
 10  4  2  0
 11  6  2  0
 12  9  1  0
 13  3  1  0
 14  1  2  0
 15  8  1  0
 16  7  1  0
 17  6  1  0
 18  5  1  0
 19 15  1  0
 20 16  1  0
 21 16  1  0
 22 15  1  0
 23 10  1  0
 24  9  1  0
 25 11  1  0
 26 12  1  0
 27  8  1  0
 28  7  1  0
  7 29  1  1
  8 30  1  1
 31 34  1  0
 32 33  1  0
 33 27  1  0
 34 28  1  0
 35 22  1  0
 36 21  1  0
 37 21  1  0
 38 22  1  0
 39 25  1  0
 40 26  1  0
 41 26  1  0
 42 25  1  0
 10 11  1  0
 17 20  1  0
 31 21  1  0
 12  5  2  0
 18 19  1  0
 22 32  1  0
M  END
>  <ID>  (2012) 


>  <MOLENAME>  (2012) 
PODOTOTARIN

>  <therap>  (2012) 
nan

>  <ref>  (2012) 
Tetrahedron 19: 209 (1963); Phytochemistry 6: 883 (1967)

>  <cas#>  (2012) 
nan

>  <source>  (2012) 
Podocarpus spp

>  <status>  (2012) 
undetermined activity

>  <tradename>  (2012) 
nan

>  <SMILES>  (2012) 
CC(C)c1c2CCC3C(C)(C)CCC[C@]3(C)c2cc(-c2c(O)c(C(C)C)c3CCC4C(C)(C)CCC[C@]4(C)c3c2)c1O

>  <standardized_failed>  (2012) 
False

$$$$

     RDKit          2D

 15 15  0  0  0  0  0  0  0  0999 V2000
    2.7042   -2.9292    0.0000 C   0  0  0  0  0  0  0  0  0  0  0  0
    4.2667   -2.6792    0.0000 C   0  0  0  0  0  0  0  0  0  0  0  0
    1.8042   -2.6500    0.0000 C   0  0  0  0  0  0  0  0  0  0  0  0
    3.9875   -1.5292    0.0000 C   0  0  0  0  0  0  0  0  0  0  0  0
    2.9625   -0.4917    0.0000 C   0  0  0  0  0  0  0  0  0  0  0  0
    4.6417   -1.9375    0.0000 C   0  0  0  0  0  0  0  0  0  0  0  0
    2.3167   -1.0000    0.0000 C   0  0  0  0  0  0  0  0  0  0  0  0
    3.3625   -2.4625    0.0000 C   0  0  0  0  0  0  0  0  0  0  0  0
    3.7667   -0.6750    0.0000 C   0  0  0  0  0  0  0  0  0  0  0  0
    1.5792   -1.1500    0.0000 C   0  0  0  0  0  0  0  0  0  0  0  0
    1.3917   -1.9375    0.0000 C   0  0  0  0  0  0  0  0  0  0  0  0
    1.3042   -3.1792    0.0000 C   0  0  0  0  0  0  0  0  0  0  0  0
    2.9542    0.3375    0.0000 C   0  0  0  0  0  0  0  0  0  0  0  0
    4.9250   -2.6792    0.0000 C   0  0  0  0  0  0  0  0  0  0  0  0
    4.2667   -3.3375    0.0000 C   0  0  0  0  0  0  0  0  0  0  0  0
  2  8  1  0
  3  1  2  0
  4  6  2  0
  5  7  2  0
  6  2  1  0
  7 10  1  0
  8  1  1  0
  9  4  1  0
 10 11  1  0
 11  3  1  0
 12  3  1  0
 13  5  1  0
 14  2  1  0
 15  2  1  0
  9  5  1  0
M  END
>  <ID>  (2013) 


>  <MOLENAME>  (2013) 
HUMULENE (alpha)

>  <therap>  (2013) 
nan

>  <ref>  (2013) 
JACS 99: 3864 (1977); J Chem Soc 1980: 311

>  <cas#>  (2013) 
6753-98-6

>  <source>  (2013) 
hops and clove oils

>  <status>  (2013) 
undetermined activity

>  <tradename>  (2013) 
nan

>  <SMILES>  (2013) 
C/C1=C/CC(C)(C)/C=C/C/C(C)=C/CC1

>  <standardized_failed>  (2013) 
False

$$$$

     RDKit          2D

 20 21  0  0  0  0  0  0  0  0999 V2000
    4.2500   -5.0917    0.0000 C   0  0  0  0  0  0  0  0  0  0  0  0
    4.2500   -4.2667    0.0000 C   0  0  0  0  0  0  0  0  0  0  0  0
    4.9625   -5.5042    0.0000 C   0  0  0  0  0  0  0  0  0  0  0  0
    4.9625   -6.3292    0.0000 C   0  0  0  0  0  0  0  0  0  0  0  0
    3.5167   -5.5542    0.0000 O   0  0  0  0  0  0  0  0  0  0  0  0
    3.5375   -3.8542    0.0000 C   0  0  0  0  0  0  0  0  0  0  0  0
    5.6792   -6.7417    0.0000 C   0  0  0  0  0  0  0  0  0  0  0  0
    5.6792   -5.0917    0.0000 C   0  0  0  0  0  0  0  0  0  0  0  0
    2.8167   -4.2667    0.0000 C   0  0  0  0  0  0  0  0  0  0  0  0
    6.3917   -6.3292    0.0000 C   0  0  0  0  0  0  0  0  0  0  0  0
    2.8167   -5.0917    0.0000 C   0  0  0  0  0  0  0  0  0  0  0  0
    4.9625   -3.8542    0.0000 C   0  0  0  0  0  0  0  0  0  0  0  0
    4.2500   -6.7417    0.0000 O   0  0  0  0  0  0  0  0  0  0  0  0
    5.6792   -4.2667    0.0000 C   0  0  0  0  0  0  0  0  0  0  0  0
    6.3917   -5.5000    0.0000 O   0  0  0  0  0  0  0  0  0  0  0  0
    7.1125   -6.7417    0.0000 O   0  0  0  0  0  0  0  0  0  0  0  0
    4.9625   -3.0292    0.0000 O   0  0  0  0  0  0  0  0  0  0  0  0
    2.3292   -5.7417    0.0000 C   0  0  0  0  0  0  0  0  0  0  0  0
    2.0167   -5.0875    0.0000 C   0  0  0  0  0  0  0  0  0  0  0  0
    4.2500   -2.6167    0.0000 C   0  0  0  0  0  0  0  0  0  0  0  0
  2  1  1  0
  3  1  2  0
  4  3  1  0
  5  1  1  0
  6  2  1  0
  7  4  1  0
  8  3  1  0
  9 11  1  0
 10  7  1  0
 11  5  1  0
 12  2  2  0
 13  4  2  0
 14  8  2  0
 15 10  2  0
 16 10  1  0
 17 12  1  0
 18 11  1  0
 19 11  1  0
 20 17  1  0
  9  6  2  0
 14 12  1  0
M  END
>  <ID>  (2014) 


>  <MOLENAME>  (2014) 
URSINOIC ACID

>  <therap>  (2014) 
nan

>  <ref>  (2014) 
Khim Prir Soedin 6:421 (1970); Chem Nat Compd (Eng Trans) 6:429 (1970)

>  <cas#>  (2014) 
30265-59-9

>  <source>  (2014) 
Angelica ursina

>  <status>  (2014) 
undetermined activity

>  <tradename>  (2014) 
nan

>  <SMILES>  (2014) 
COc1c2C=CC(C)(C)Oc2c(C(=O)CC(=O)O)cc1

>  <standardized_failed>  (2014) 
False

$$$$

     RDKit          2D

 20 20  0  0  0  0  0  0  0  0999 V2000
    6.7208   -0.2958    0.0000 C   0  0  0  0  0  0  0  0  0  0  0  0
    7.4458    0.1167    0.0000 C   0  0  0  0  0  0  0  0  0  0  0  0
    7.4458    0.9417    0.0000 C   0  0  0  0  0  0  0  0  0  0  0  0
    6.0083    0.1167    0.0000 C   0  0  0  0  0  0  0  0  0  0  0  0
    6.7208    1.3583    0.0000 O   0  0  0  0  0  0  0  0  0  0  0  0
    6.7250   -1.1250    0.0000 O   0  0  0  0  0  0  0  0  0  0  0  0
    6.0083    0.9417    0.0000 C   0  0  0  0  0  0  0  0  0  0  0  0
    8.1583   -0.2958    0.0000 N   0  0  0  0  0  0  0  0  0  0  0  0
    6.0083   -2.3625    0.0000 C   0  0  0  0  0  0  0  0  0  0  0  0
    6.0083   -1.5375    0.0000 C   0  0  0  0  0  0  0  0  0  0  0  0
    8.1583   -1.1208    0.0000 C   0  0  0  0  0  0  0  0  0  0  0  0
    6.7250   -2.7750    0.0000 O   0  0  0  0  0  0  0  0  0  0  0  0
    7.4417   -1.5333    0.0000 O   0  0  0  0  0  0  0  0  0  0  0  0
    5.2917   -0.2958    0.0000 O   0  0  0  0  0  0  0  0  0  0  0  0
    8.1583    1.3583    0.0000 O   0  0  0  0  0  0  0  0  0  0  0  0
    5.2958   -2.7750    0.0000 O   0  0  0  0  0  0  0  0  0  0  0  0
    5.2917    1.3583    0.0000 C   0  0  0  0  0  0  0  0  0  0  0  0
    4.6625    0.8250    0.0000 O   0  0  0  0  0  0  0  0  0  0  0  0
    8.8708   -1.5333    0.0000 C   0  0  0  0  0  0  0  0  0  0  0  0
    5.2958   -1.1250    0.0000 C   0  0  0  0  0  0  0  0  0  0  0  0
  2  1  1  0
  3  2  1  0
  4  1  1  0
  5  7  1  0
  1  6  1  1
  7  4  1  0
  2  8  1  6
  9 10  1  0
 10  6  1  0
 11  8  1  0
 12  9  2  0
 13 11  2  0
  4 14  1  6
  3 15  1  1
 16  9  1  0
  7 17  1  1
 18 17  1  0
 19 11  1  0
 20 10  1  0
  3  5  1  0
M  END
>  <ID>  (2015) 


>  <MOLENAME>  (2015) 
N-ACETYLMURAMIC ACID

>  <therap>  (2015) 
nan

>  <ref>  (2015) 
nan

>  <cas#>  (2015) 
10597-89-4

>  <source>  (2015) 
bacterial cell wall component

>  <status>  (2015) 
undetermined activity

>  <tradename>  (2015) 
nan

>  <SMILES>  (2015) 
CC(=O)N[C@H]1[C@H](O)O[C@H](CO)[C@@H](O)[C@@H]1OC(C)C(=O)O

>  <standardized_failed>  (2015) 
False

$$$$

     RDKit          2D

 20 22  0  0  0  0  0  0  0  0999 V2000
    2.9000   -2.3292    0.0000 C   0  0  0  0  0  0  0  0  0  0  0  0
    2.1750   -1.9167    0.0000 C   0  0  0  0  0  0  0  0  0  0  0  0
    3.6167   -1.9167    0.0000 C   0  0  0  0  0  0  0  0  0  0  0  0
    2.1750   -1.0917    0.0000 C   0  0  0  0  0  0  0  0  0  0  0  0
    3.6167   -1.0917    0.0000 C   0  0  0  0  0  0  0  0  0  0  0  0
    1.4625   -2.3292    0.0000 C   0  0  0  0  0  0  0  0  0  0  0  0
    2.9000   -0.6750    0.0000 O   0  0  0  0  0  0  0  0  0  0  0  0
    1.4625   -0.6750    0.0000 C   0  0  0  0  0  0  0  0  0  0  0  0
    0.7417   -1.9167    0.0000 C   0  0  0  0  0  0  0  0  0  0  0  0
    4.3375   -2.3292    0.0000 C   0  0  0  0  0  0  0  0  0  0  0  0
    2.9000   -3.1542    0.0000 O   0  0  0  0  0  0  0  0  0  0  0  0
    0.7417   -1.0917    0.0000 C   0  0  0  0  0  0  0  0  0  0  0  0
    5.0500   -1.9167    0.0000 C   0  0  0  0  0  0  0  0  0  0  0  0
    4.3375   -3.1542    0.0000 C   0  0  0  0  0  0  0  0  0  0  0  0
    1.4625   -3.1542    0.0000 O   0  0  0  0  0  0  0  0  0  0  0  0
    5.7625   -3.1542    0.0000 C   0  0  0  0  0  0  0  0  0  0  0  0
    5.7625   -2.3292    0.0000 C   0  0  0  0  0  0  0  0  0  0  0  0
    5.0500   -3.5667    0.0000 C   0  0  0  0  0  0  0  0  0  0  0  0
    0.0292   -0.6792    0.0000 O   0  0  0  0  0  0  0  0  0  0  0  0
    6.4750   -3.5667    0.0000 O   0  0  0  0  0  0  0  0  0  0  0  0
  2  1  1  0
  3  1  1  0
  4  2  2  0
  5  3  2  0
  6  2  1  0
  7  5  1  0
  8  4  1  0
  9  6  2  0
 10  3  1  0
 11  1  2  0
 12  9  1  0
 13 10  2  0
 14 10  1  0
 15  6  1  0
 16 18  1  0
 17 13  1  0
 18 14  2  0
 19 12  1  0
 20 16  1  0
  4  7  1  0
 17 16  2  0
 12  8  2  0
M  END
>  <ID>  (2016) 


>  <MOLENAME>  (2016) 
GENISTEIN

>  <therap>  (2016) 
increases bone mineral density 

>  <ref>  (2016) 
Phytochemistry 7: 791 (1968)

>  <cas#>  (2016) 
446-72-0

>  <source>  (2016) 
widely distributed in Leguminoseae

>  <status>  (2016) 
medical food

>  <tradename>  (2016) 
FOSTEUM

>  <SMILES>  (2016) 
O=c1c(-c2ccc(O)cc2)coc2c1c(O)cc(O)c2

>  <standardized_failed>  (2016) 
False

$$$$

     RDKit          2D

 24 26  0  0  0  0  0  0  0  0999 V2000
    3.5292   -2.3667    0.0000 C   0  0  0  0  0  0  0  0  0  0  0  0
    4.2417   -1.9542    0.0000 C   0  0  0  0  0  0  0  0  0  0  0  0
    4.2542   -1.1292    0.0000 C   0  0  0  0  0  0  0  0  0  0  0  0
    4.9542   -2.3792    0.0000 C   0  0  0  0  0  0  0  0  0  0  0  0
    4.9792   -0.7250    0.0000 C   0  0  0  0  0  0  0  0  0  0  0  0
    3.5292   -3.1917    0.0000 C   0  0  0  0  0  0  0  0  0  0  0  0
    5.6917   -1.1417    0.0000 C   0  0  0  0  0  0  0  0  0  0  0  0
    5.6792   -1.9750    0.0000 C   0  0  0  0  0  0  0  0  0  0  0  0
    3.0167   -1.4667    0.0000 C   0  0  0  0  0  0  0  0  0  0  0  0
    2.8167   -3.6042    0.0000 C   0  0  0  0  0  0  0  0  0  0  0  0
    4.2417   -3.6042    0.0000 C   0  0  0  0  0  0  0  0  0  0  0  0
    4.9542   -3.2000    0.0000 C   0  0  0  0  0  0  0  0  0  0  0  0
    3.0167   -0.7792    0.0000 O   0  0  0  0  0  0  0  0  0  0  0  0
    3.6750   -0.7792    0.0000 O   0  0  0  0  0  0  0  0  0  0  0  0
    6.4042   -0.7417    0.0000 C   0  0  0  0  0  0  0  0  0  0  0  0
    2.8167   -1.9542    0.0000 C   0  0  0  0  0  0  0  0  0  0  0  0
    4.9875   -0.1250    0.0000 O   0  0  0  0  0  0  0  0  0  0  0  0
    2.1417   -1.4667    0.0000 O   0  0  0  0  0  0  0  0  0  0  0  0
    2.1125   -3.1917    0.0000 C   0  0  0  0  0  0  0  0  0  0  0  0
    2.1125   -2.3667    0.0000 C   0  0  0  0  0  0  0  0  0  0  0  0
    2.3625   -4.1792    0.0000 C   0  0  0  0  0  0  0  0  0  0  0  0
    3.1125   -4.1542    0.0000 C   0  0  0  0  0  0  0  0  0  0  0  0
    6.4167    0.0833    0.0000 C   0  0  0  0  0  0  0  0  0  0  0  0
    7.1167   -1.1667    0.0000 C   0  0  0  0  0  0  0  0  0  0  0  0
  2  1  1  0
  3  2  2  0
  4  2  1  0
  5  3  1  0
  6  1  1  0
  7  8  1  0
  8  4  2  0
  1  9  1  1
 10  6  1  0
 11  6  1  0
 12 11  1  0
 13  9  2  0
 14  3  1  0
 15  7  1  0
 16  1  1  0
 17  5  1  0
 18  9  1  0
 19 20  1  0
 20 16  1  0
 21 10  1  0
 22 10  1  0
 23 15  1  0
 24 15  1  0
 19 10  1  0
  4 12  1  0
  5  7  2  0
M  END
>  <ID>  (2017) 


>  <MOLENAME>  (2017) 
CARNOSIC ACID

>  <therap>  (2017) 
nan

>  <ref>  (2017) 
nan

>  <cas#>  (2017) 
3650-09-7

>  <source>  (2017) 
Salvia spp, Rosmarinus officinalis

>  <status>  (2017) 
undetermined activity

>  <tradename>  (2017) 
nan

>  <SMILES>  (2017) 
CC(C)c1c(O)c(O)c2c(c1)CCC1C(C)(C)CCC[C@]21C(=O)O

>  <standardized_failed>  (2017) 
False

$$$$

     RDKit          2D

 11 12  0  0  0  0  0  0  0  0999 V2000
    4.4042   -2.0917    0.0000 N   0  0  0  0  0  0  0  0  0  0  0  0
    3.6500   -1.7542    0.0000 C   0  0  0  0  0  0  0  0  0  0  0  0
    2.9375   -2.1667    0.0000 C   0  0  0  0  0  0  0  0  0  0  0  0
    2.2250   -3.3917    0.0000 N   0  0  0  0  0  0  0  0  0  0  0  0
    2.9375   -2.9917    0.0000 C   0  0  0  0  0  0  0  0  0  0  0  0
    4.9625   -1.4792    0.0000 C   0  0  0  0  0  0  0  0  0  0  0  0
    3.7417   -0.9292    0.0000 C   0  0  0  0  0  0  0  0  0  0  0  0
    2.2250   -1.7417    0.0000 C   0  0  0  0  0  0  0  0  0  0  0  0
    1.5167   -2.9917    0.0000 C   0  0  0  0  0  0  0  0  0  0  0  0
    4.5500   -0.7667    0.0000 C   0  0  0  0  0  0  0  0  0  0  0  0
    1.5167   -2.1667    0.0000 C   0  0  0  0  0  0  0  0  0  0  0  0
  2  1  2  0
  3  2  1  0
  4  5  2  0
  5  3  1  0
  6  1  1  0
  7  2  1  0
  8  3  2  0
  9 11  2  0
 10  6  1  0
 11  8  1  0
 10  7  1  0
  4  9  1  0
M  END
>  <ID>  (2018) 


>  <MOLENAME>  (2018) 
MYOSMINE

>  <therap>  (2018) 
mitogen

>  <ref>  (2018) 
Tetrahedron Letters, 1967: 5185

>  <cas#>  (2018) 
532-12-7

>  <source>  (2018) 
tobacco, nuts

>  <status>  (2018) 
undetermined activity

>  <tradename>  (2018) 
nan

>  <SMILES>  (2018) 
c1cncc(C2=NCCC2)c1

>  <standardized_failed>  (2018) 
False

$$$$

     RDKit          2D

 18 18  0  0  0  0  0  0  0  0999 V2000
    0.5792   -0.1167    0.0000 C   0  0  0  0  0  0  0  0  0  0  0  0
   -0.0875    0.3708    0.0000 O   0  0  0  0  0  0  0  0  0  0  0  0
    0.3250   -0.9042    0.0000 C   0  0  0  0  0  0  0  0  0  0  0  0
   -0.7500   -0.1167    0.0000 C   0  0  0  0  0  0  0  0  0  0  0  0
   -0.5000   -0.9042    0.0000 C   0  0  0  0  0  0  0  0  0  0  0  0
    9.1292   -0.0917    0.0000 C   0  0  0  0  0  0  0  0  0  0  0  0
    9.1292   -0.9167    0.0000 C   0  0  0  0  0  0  0  0  0  0  0  0
    1.2917    0.2958    0.0000 C   0  0  0  0  0  0  0  0  0  0  0  0
    8.4167    0.3208    0.0000 C   0  0  0  0  0  0  0  0  0  0  0  0
    2.0042   -0.1125    0.0000 C   0  0  0  0  0  0  0  0  0  0  0  0
    7.7042   -0.0917    0.0000 C   0  0  0  0  0  0  0  0  0  0  0  0
    5.5667    0.3083    0.0000 C   0  0  0  0  0  0  0  0  0  0  0  0
    6.2792   -0.0917    0.0000 C   0  0  0  0  0  0  0  0  0  0  0  0
    6.9917    0.3125    0.0000 C   0  0  0  0  0  0  0  0  0  0  0  0
    2.7167    0.3000    0.0000 C   0  0  0  0  0  0  0  0  0  0  0  0
    3.4292   -0.1042    0.0000 C   0  0  0  0  0  0  0  0  0  0  0  0
    4.1417    0.3083    0.0000 C   0  0  0  0  0  0  0  0  0  0  0  0
    4.8542   -0.1042    0.0000 C   0  0  0  0  0  0  0  0  0  0  0  0
  2  1  1  0
  3  1  2  0
  4  2  1  0
  5  3  1  0
  6  9  1  0
  7  6  2  0
  8  1  1  0
  9 11  1  0
 10  8  1  0
 11 14  1  0
 12 18  1  0
 13 12  1  0
 14 13  1  0
 15 10  1  0
 16 15  1  0
 17 16  1  0
 18 17  1  0
  5  4  2  0
M  END
>  <ID>  (2019) 


>  <MOLENAME>  (2019) 
AVOCADENOFURAN

>  <therap>  (2019) 
nan

>  <ref>  (2019) 
Tetrahedron 25:4617(1969); An Acad Brasil Cienc 42 (suplemento): 45 (1970)

>  <cas#>  (2019) 
25346-24-1

>  <source>  (2019) 
Persea spp

>  <status>  (2019) 
undetermined activity

>  <tradename>  (2019) 
nan

>  <SMILES>  (2019) 
C=CCCCCCCCCCCCc1ccco1

>  <standardized_failed>  (2019) 
False

$$$$

     RDKit          2D

 35 39  0  0  0  0  0  0  0  0999 V2000
    3.3042   -0.1917    0.0000 C   0  0  0  0  0  0  0  0  0  0  0  0
    2.5500   -0.6167    0.0000 C   0  0  0  0  0  0  0  0  0  0  0  0
    1.7875   -0.1917    0.0000 C   0  0  0  0  0  0  0  0  0  0  0  0
    4.0667   -0.6167    0.0000 C   0  0  0  0  0  0  0  0  0  0  0  0
    5.5875   -0.6167    0.0000 C   0  0  0  0  0  0  0  0  0  0  0  0
    3.3042    0.7083    0.0000 C   0  0  0  0  0  0  0  0  0  0  0  0
    4.8250   -0.1917    0.0000 C   0  0  0  0  0  0  0  0  0  0  0  0
   -0.4958    1.1208    0.0000 O   0  0  0  0  0  0  0  0  0  0  0  0
    1.7875    0.7083    0.0000 C   0  0  0  0  0  0  0  0  0  0  0  0
    0.2667    0.7083    0.0000 C   0  0  0  0  0  0  0  0  0  0  0  0
    5.5875   -1.5167    0.0000 C   0  0  0  0  0  0  0  0  0  0  0  0
    6.3500   -0.1917    0.0000 C   0  0  0  0  0  0  0  0  0  0  0  0
   -1.2500    0.7083    0.0000 C   0  0  0  0  0  0  0  0  0  0  0  0
    1.0250   -0.6167    0.0000 C   0  0  0  0  0  0  0  0  0  0  0  0
    0.2667   -0.1917    0.0000 C   0  0  0  0  0  0  0  0  0  0  0  0
    2.5500    1.1208    0.0000 O   0  0  0  0  0  0  0  0  0  0  0  0
    6.3500   -1.9417    0.0000 O   0  0  0  0  0  0  0  0  0  0  0  0
    1.0250    1.1208    0.0000 C   0  0  0  0  0  0  0  0  0  0  0  0
   -1.2500   -0.1917    0.0000 C   0  0  0  0  0  0  0  0  0  0  0  0
   -0.4958   -0.6167    0.0000 C   0  0  0  0  0  0  0  0  0  0  0  0
    4.0667   -1.5167    0.0000 C   0  0  0  0  0  0  0  0  0  0  0  0
    7.1042   -0.6167    0.0000 C   0  0  0  0  0  0  0  0  0  0  0  0
    7.1042   -1.5167    0.0000 C   0  0  0  0  0  0  0  0  0  0  0  0
   -2.0333   -0.6417    0.0000 O   0  0  0  0  0  0  0  0  0  0  0  0
   -2.8125   -0.1917    0.0000 C   0  0  0  0  0  0  0  0  0  0  0  0
    2.5500   -1.5167    0.0000 O   0  0  0  0  0  0  0  0  0  0  0  0
    4.8250   -1.9417    0.0000 C   0  0  0  0  0  0  0  0  0  0  0  0
   -3.5958   -0.6417    0.0000 O   0  0  0  0  0  0  0  0  0  0  0  0
    4.8250    0.7083    0.0000 O   0  0  0  0  0  0  0  0  0  0  0  0
   -1.2500    1.5708    0.0000 C   0  0  0  0  0  0  0  0  0  0  0  0
   -2.0000    0.3458    0.0000 C   0  0  0  0  0  0  0  0  0  0  0  0
   -2.8125    0.7083    0.0000 C   0  0  0  0  0  0  0  0  0  0  0  0
    7.8042   -1.1542    0.0000 C   0  0  0  0  0  0  0  0  0  0  0  0
    7.1000   -2.4042    0.0000 C   0  0  0  0  0  0  0  0  0  0  0  0
    5.5875    1.1208    0.0000 C   0  0  0  0  0  0  0  0  0  0  0  0
  2  1  1  0
  3  2  1  0
  4  1  1  0
  5  7  2  0
  6  1  2  0
  7  4  1  0
  8 10  1  0
  9 16  1  0
 10 18  1  0
 11 27  2  0
 12  5  1  0
 13  8  1  0
 14  3  2  0
 15 14  1  0
 16  6  1  0
 17 11  1  0
 18  9  2  0
 19 20  1  0
 20 15  1  0
 21  4  2  0
 22 12  2  0
 23 17  1  0
 24 19  1  0
 25 24  1  0
 26  2  2  0
 27 21  1  0
 28 25  2  0
 29  7  1  0
 30 13  1  0
 31 13  1  0
 32 25  1  0
 33 23  1  0
 34 23  1  0
 35 29  1  0
  9  3  1  0
  5 11  1  0
 10 15  2  0
 22 23  1  0
 13 19  1  0
M  END
>  <ID>  (2020) 


>  <MOLENAME>  (2020) 
MUNDULONE ACETATE

>  <therap>  (2020) 
nan

>  <ref>  (2020) 
nan

>  <cas#>  (2020) 
nan

>  <source>  (2020) 
derivative

>  <status>  (2020) 
undetermined activity

>  <tradename>  (2020) 
nan

>  <SMILES>  (2020) 
COc1c2C=CC(C)(C)Oc2ccc1-c1coc2cc3c(cc2c1=O)CC(OC(C)=O)C(C)(C)O3

>  <standardized_failed>  (2020) 
False

$$$$

     RDKit          2D

 21 24  0  0  0  0  0  0  0  0999 V2000
    3.7500   -0.2375    0.0000 C   0  0  0  0  0  0  0  0  0  0  0  0
    3.5792   -1.0417    0.0000 C   0  0  0  0  0  0  0  0  0  0  0  0
    4.5625   -0.1542    0.0000 C   0  0  0  0  0  0  0  0  0  0  0  0
    4.2917   -1.4500    0.0000 C   0  0  0  0  0  0  0  0  0  0  0  0
    3.2667    0.4125    0.0000 C   0  0  0  0  0  0  0  0  0  0  0  0
    2.8667   -1.4625    0.0000 C   0  0  0  0  0  0  0  0  0  0  0  0
    4.8917    0.5875    0.0000 C   0  0  0  0  0  0  0  0  0  0  0  0
    3.5917    1.1625    0.0000 C   0  0  0  0  0  0  0  0  0  0  0  0
    2.8667   -2.2875    0.0000 C   0  0  0  0  0  0  0  0  0  0  0  0
    4.4042    1.2500    0.0000 C   0  0  0  0  0  0  0  0  0  0  0  0
    4.9000   -0.9000    0.0000 C   0  0  0  0  0  0  0  0  0  0  0  0
    3.5875   -2.7000    0.0000 O   0  0  0  0  0  0  0  0  0  0  0  0
    4.3000   -2.2792    0.0000 C   0  0  0  0  0  0  0  0  0  0  0  0
    2.1542   -2.7000    0.0000 C   0  0  0  0  0  0  0  0  0  0  0  0
    2.1542   -1.0500    0.0000 C   0  0  0  0  0  0  0  0  0  0  0  0
    4.7417    2.0083    0.0000 O   0  0  0  0  0  0  0  0  0  0  0  0
    5.0042   -1.8625    0.0000 O   0  0  0  0  0  0  0  0  0  0  0  0
    1.4417   -2.2875    0.0000 C   0  0  0  0  0  0  0  0  0  0  0  0
    3.1750    1.8833    0.0000 O   0  0  0  0  0  0  0  0  0  0  0  0
    1.4417   -1.4625    0.0000 C   0  0  0  0  0  0  0  0  0  0  0  0
    0.7250   -2.7000    0.0000 O   0  0  0  0  0  0  0  0  0  0  0  0
  2  1  2  0
  3  1  1  0
  4  2  1  0
  5  1  1  0
  6  2  1  0
  7  3  2  0
  8  5  2  0
  9  6  2  0
 10  8  1  0
 11  3  1  0
 12  9  1  0
 13  4  1  0
 14  9  1  0
 15  6  1  0
 16 10  2  0
  4 17  1  6
 18 20  1  0
 19  8  1  0
 20 15  2  0
 21 18  1  0
  4 11  1  0
 10  7  1  0
 13 12  1  0
 18 14  2  0
M  END
>  <ID>  (2021) 


>  <MOLENAME>  (2021) 
BRAZILEIN

>  <therap>  (2021) 
nan

>  <ref>  (2021) 
Phytochemistry 46: 177 (1997)

>  <cas#>  (2021) 
600-76-0

>  <source>  (2021) 
Caesalpinia spp

>  <status>  (2021) 
undetermined activity

>  <tradename>  (2021) 
nan

>  <SMILES>  (2021) 
O=C1C=C2C[C@@]3(O)COc4c(ccc(O)c4)C3=C2C=C1O

>  <standardized_failed>  (2021) 
False

$$$$

     RDKit          2D

 14 16  0  0  0  0  0  0  0  0999 V2000
    5.7500   -3.7542    0.0000 N   0  0  0  0  0  0  0  0  0  0  0  0
    6.4625   -4.1667    0.0000 C   0  0  0  0  0  0  0  0  0  0  0  0
    6.4667   -4.9917    0.0000 C   0  0  0  0  0  0  0  0  0  0  0  0
    5.0375   -4.1667    0.0000 C   0  0  0  0  0  0  0  0  0  0  0  0
    5.0417   -4.9917    0.0000 C   0  0  0  0  0  0  0  0  0  0  0  0
    7.1750   -3.7542    0.0000 C   0  0  0  0  0  0  0  0  0  0  0  0
    7.8917   -4.1667    0.0000 N   0  0  0  0  0  0  0  0  0  0  0  0
    7.8917   -4.9917    0.0000 C   0  0  0  0  0  0  0  0  0  0  0  0
    7.1792   -5.4042    0.0000 C   0  0  0  0  0  0  0  0  0  0  0  0
    4.3250   -5.4042    0.0000 C   0  0  0  0  0  0  0  0  0  0  0  0
    4.3250   -3.7542    0.0000 C   0  0  0  0  0  0  0  0  0  0  0  0
    7.1667   -2.9292    0.0000 C   0  0  0  0  0  0  0  0  0  0  0  0
    3.6167   -4.9917    0.0000 C   0  0  0  0  0  0  0  0  0  0  0  0
    3.6167   -4.1667    0.0000 C   0  0  0  0  0  0  0  0  0  0  0  0
  2  1  1  0
  3  2  2  0
  4  1  1  0
  5  4  2  0
  6  2  1  0
  7  6  2  0
  8  7  1  0
  9  3  1  0
 10  5  1  0
 11  4  1  0
 12  6  1  0
 13 14  1  0
 14 11  2  0
  3  5  1  0
  8  9  2  0
 13 10  2  0
M  END
>  <ID>  (2022) 


>  <MOLENAME>  (2022) 
HARMANE

>  <therap>  (2022) 
intercalating agent, sedative

>  <ref>  (2022) 
J Am Chem Soc 76: 2792 (1954)

>  <cas#>  (2022) 
486-84-0

>  <source>  (2022) 
Arariba rubra.

>  <status>  (2022) 
experimental

>  <tradename>  (2022) 
nan

>  <SMILES>  (2022) 
Cc1nccc2c1[nH]c1c2cccc1

>  <standardized_failed>  (2022) 
False

$$$$

     RDKit          2D

 10 11  0  0  0  0  0  0  0  0999 V2000
    6.6750   -3.5875    0.0000 C   0  0  0  0  0  0  0  0  0  0  0  0
    6.1875   -4.2542    0.0000 N   0  0  0  0  0  0  0  0  0  0  0  0
    6.1875   -2.9167    0.0000 S   0  0  0  0  0  0  0  0  0  0  0  0
    5.4042   -4.0000    0.0000 C   0  0  0  0  0  0  0  0  0  0  0  0
    5.4042   -3.1750    0.0000 C   0  0  0  0  0  0  0  0  0  0  0  0
    7.5000   -3.5875    0.0000 S   0  0  0  0  0  0  0  0  0  0  0  0
    4.6875   -4.4167    0.0000 C   0  0  0  0  0  0  0  0  0  0  0  0
    4.6875   -2.7625    0.0000 C   0  0  0  0  0  0  0  0  0  0  0  0
    3.9750   -3.1750    0.0000 C   0  0  0  0  0  0  0  0  0  0  0  0
    3.9750   -4.0042    0.0000 C   0  0  0  0  0  0  0  0  0  0  0  0
  2  1  2  0
  3  1  1  0
  4  2  1  0
  5  3  1  0
  6  1  1  0
  7  4  2  0
  8  5  2  0
  9  8  1  0
 10  7  1  0
  4  5  1  0
 10  9  2  0
M  END
>  <ID>  (2023) 


>  <MOLENAME>  (2023) 
2-MERCAPTOBENZOTHIAZOLE

>  <therap>  (2023) 
antifungal

>  <ref>  (2023) 
nan

>  <cas#>  (2023) 
149-30-4

>  <source>  (2023) 
synthetic; AG-63

>  <status>  (2023) 
experimental

>  <tradename>  (2023) 
nan

>  <SMILES>  (2023) 
Sc1nc2ccccc2s1

>  <standardized_failed>  (2023) 
False

$$$$

     RDKit          2D

 11 11  0  0  0  0  0  0  0  0999 V2000
    5.6542   -2.6917    0.0000 C   0  0  0  0  0  0  0  0  0  0  0  0
    6.3667   -3.1042    0.0000 C   0  0  0  0  0  0  0  0  0  0  0  0
    4.9417   -3.1042    0.0000 C   0  0  0  0  0  0  0  0  0  0  0  0
    4.9417   -3.9292    0.0000 C   0  0  0  0  0  0  0  0  0  0  0  0
    6.3667   -3.9292    0.0000 C   0  0  0  0  0  0  0  0  0  0  0  0
    5.6542   -4.3417    0.0000 C   0  0  0  0  0  0  0  0  0  0  0  0
    5.6500   -1.8667    0.0000 O   0  0  0  0  0  0  0  0  0  0  0  0
    4.2292   -2.6917    0.0000 O   0  0  0  0  0  0  0  0  0  0  0  0
    7.0792   -2.6875    0.0000 O   0  0  0  0  0  0  0  0  0  0  0  0
    5.6542   -5.1667    0.0000 O   0  0  0  0  0  0  0  0  0  0  0  0
    6.3667   -1.4542    0.0000 C   0  0  0  0  0  0  0  0  0  0  0  0
  2  1  2  0
  3  1  1  0
  4  3  2  0
  5  2  1  0
  6  4  1  0
  7  1  1  0
  8  3  1  0
  9  2  1  0
 10  6  1  0
 11  7  1  0
  5  6  2  0
M  END
>  <ID>  (2024) 


>  <MOLENAME>  (2024) 
IRETOL

>  <therap>  (2024) 
nan

>  <ref>  (2024) 
J Chem Soc 1927: 3028

>  <cas#>  (2024) 
nan

>  <source>  (2024) 
semisynthetic

>  <status>  (2024) 
undetermined activity

>  <tradename>  (2024) 
nan

>  <SMILES>  (2024) 
COc1c(O)cc(O)cc1O

>  <standardized_failed>  (2024) 
False

$$$$

     RDKit          2D

 47 52  0  0  0  0  0  0  0  0999 V2000
    8.9000   -6.4625    0.0000 C   0  0  0  0  0  0  0  0  0  0  0  0
    9.6625   -6.0250    0.0000 C   0  0  0  0  0  0  0  0  0  0  0  0
    8.9000   -7.3625    0.0000 C   0  0  0  0  0  0  0  0  0  0  0  0
    7.3250   -7.3625    0.0000 C   0  0  0  0  0  0  0  0  0  0  0  0
    8.0875   -7.8125    0.0000 C   0  0  0  0  0  0  0  0  0  0  0  0
    7.3250   -6.4625    0.0000 C   0  0  0  0  0  0  0  0  0  0  0  0
    9.6750   -7.1750    0.0000 C   0  0  0  0  0  0  0  0  0  0  0  0
    8.0875   -6.0250    0.0000 O   0  0  0  0  0  0  0  0  0  0  0  0
    5.7750   -6.4625    0.0000 C   0  0  0  0  0  0  0  0  0  0  0  0
    5.7750   -7.3625    0.0000 C   0  0  0  0  0  0  0  0  0  0  0  0
    9.2000   -5.4750    0.0000 O   0  0  0  0  0  0  0  0  0  0  0  0
    6.5500   -7.8125    0.0000 C   0  0  0  0  0  0  0  0  0  0  0  0
    6.5500   -6.0250    0.0000 C   0  0  0  0  0  0  0  0  0  0  0  0
    9.6625   -7.8125    0.0000 C   0  0  0  0  0  0  0  0  0  0  0  0
   10.4375   -6.4625    0.0000 C   0  0  0  0  0  0  0  0  0  0  0  0
    8.6625   -5.7250    0.0000 C   0  0  0  0  0  0  0  0  0  0  0  0
   10.4375   -7.3625    0.0000 C   0  0  0  0  0  0  0  0  0  0  0  0
   11.2125   -7.9125    0.0000 C   0  0  0  0  0  0  0  0  0  0  0  0
    5.0000   -7.8125    0.0000 C   0  0  0  0  0  0  0  0  0  0  0  0
    5.0000   -6.0250    0.0000 O   0  0  0  0  0  0  0  0  0  0  0  0
    9.8375   -5.1917    0.0000 C   0  0  0  0  0  0  0  0  0  0  0  0
    9.1500   -4.4417    0.0000 C   0  0  0  0  0  0  0  0  0  0  0  0
    6.5500   -5.1125    0.0000 C   0  0  0  0  0  0  0  0  0  0  0  0
   10.7167   -3.2250    0.0000 C   0  0  0  0  0  0  0  0  0  0  0  0
    9.7125   -3.5125    0.0000 C   0  0  0  0  0  0  0  0  0  0  0  0
    4.2250   -7.3625    0.0000 C   0  0  0  0  0  0  0  0  0  0  0  0
    4.2250   -6.4625    0.0000 C   0  0  0  0  0  0  0  0  0  0  0  0
    5.7750   -4.6875    0.0000 C   0  0  0  0  0  0  0  0  0  0  0  0
    8.0875   -8.7125    0.0000 O   0  0  0  0  0  0  0  0  0  0  0  0
   11.2500   -6.0000    0.0000 O   0  0  0  0  0  0  0  0  0  0  0  0
   10.8958   -2.5750    0.0000 O   0  0  0  0  0  0  0  0  0  0  0  0
    5.7750   -3.7750    0.0000 C   0  0  0  0  0  0  0  0  0  0  0  0
    1.4375   -6.4542    0.0000 C   0  0  0  0  0  0  0  0  0  0  0  0
    2.1417   -6.0500    0.0000 C   0  0  0  0  0  0  0  0  0  0  0  0
    6.5500   -8.7125    0.0000 O   0  0  0  0  0  0  0  0  0  0  0  0
   11.4667   -3.7542    0.0000 O   0  0  0  0  0  0  0  0  0  0  0  0
    8.4625   -4.7875    0.0000 C   0  0  0  0  0  0  0  0  0  0  0  0
    7.8750   -5.5625    0.0000 C   0  0  0  0  0  0  0  0  0  0  0  0
    2.8250   -6.4625    0.0000 C   0  0  0  0  0  0  0  0  0  0  0  0
    3.5167   -6.0625    0.0000 C   0  0  0  0  0  0  0  0  0  0  0  0
    9.1500   -2.7000    0.0000 C   0  0  0  0  0  0  0  0  0  0  0  0
    4.2250   -5.5125    0.0000 C   0  0  0  0  0  0  0  0  0  0  0  0
    5.0000   -3.3375    0.0000 C   0  0  0  0  0  0  0  0  0  0  0  0
    6.5500   -3.3375    0.0000 C   0  0  0  0  0  0  0  0  0  0  0  0
    1.4625   -7.1750    0.0000 C   0  0  0  0  0  0  0  0  0  0  0  0
    0.7417   -6.0500    0.0000 C   0  0  0  0  0  0  0  0  0  0  0  0
   11.3833   -4.6708    0.0000 C   0  0  0  0  0  0  0  0  0  0  0  0
  2  1  1  0
  3  1  1  0
  4  6  2  0
  5  3  1  0
  6  8  1  0
  7  1  1  0
  8  1  1  0
  9 13  2  0
 10  9  1  0
 11  2  1  0
 12  4  1  0
 13  6  1  0
 14  3  2  0
 15  2  1  0
 16  7  1  0
 17 18  1  0
 18  7  1  0
 19 10  1  0
 20  9  1  0
 21  2  1  0
 22 21  1  0
 23 13  1  0
 24 25  1  0
 25 22  2  0
 26 27  1  0
 27 20  1  0
 28 23  1  0
 29  5  2  0
 30 15  2  0
 31 24  2  0
 32 28  2  0
 33 34  2  0
 34 39  1  0
 35 12  1  0
 36 24  1  0
 37 16  1  0
 38 16  1  0
 39 40  1  0
 40 27  1  0
 41 25  1  0
 42 27  1  0
 43 32  1  0
 44 32  1  0
 45 33  1  0
 46 33  1  0
 47 36  1  0
 16 11  1  0
  4  5  1  0
 17 15  1  0
 14 17  1  0
 10 12  2  0
 19 26  2  0
M  END
>  <ID>  (2025) 


>  <MOLENAME>  (2025) 
METHYL GAMBOGATE

>  <therap>  (2025) 
caspase inhibitor

>  <ref>  (2025) 
Tetrahedron 21: 1453 (1965)

>  <cas#>  (2025) 
nan

>  <source>  (2025) 
semisynthetic

>  <status>  (2025) 
undetermined activity

>  <tradename>  (2025) 
nan

>  <SMILES>  (2025) 
COC(=O)/C(C)=C\CC12OC(C)(C)C3CC(C=C4C(=O)c5c(OC431)c(CC=C(C)C)c1OC(C)(CCC=C(C)C)C=Cc1c5O)C2=O

>  <standardized_failed>  (2025) 
False

$$$$

     RDKit          2D

 16 18  0  0  0  0  0  0  0  0999 V2000
    1.9167   -0.8042    0.0000 C   0  0  0  0  0  0  0  0  0  0  0  0
    1.9167    0.8583    0.0000 C   0  0  0  0  0  0  0  0  0  0  0  0
    1.2042    0.4375    0.0000 C   0  0  0  0  0  0  0  0  0  0  0  0
    1.2000   -0.3917    0.0000 C   0  0  0  0  0  0  0  0  0  0  0  0
    2.6417    0.4375    0.0000 C   0  0  0  0  0  0  0  0  0  0  0  0
    2.6417   -0.3917    0.0000 C   0  0  0  0  0  0  0  0  0  0  0  0
    1.9167    1.6833    0.0000 O   0  0  0  0  0  0  0  0  0  0  0  0
    1.9167   -1.6292    0.0000 O   0  0  0  0  0  0  0  0  0  0  0  0
    3.3542   -0.8042    0.0000 C   0  0  0  0  0  0  0  0  0  0  0  0
    3.3542    0.8500    0.0000 C   0  0  0  0  0  0  0  0  0  0  0  0
    0.4875   -0.8042    0.0000 C   0  0  0  0  0  0  0  0  0  0  0  0
    0.4875    0.8500    0.0000 C   0  0  0  0  0  0  0  0  0  0  0  0
    4.0667    0.4458    0.0000 C   0  0  0  0  0  0  0  0  0  0  0  0
   -0.2250   -0.3917    0.0000 C   0  0  0  0  0  0  0  0  0  0  0  0
   -0.2250    0.4375    0.0000 C   0  0  0  0  0  0  0  0  0  0  0  0
    4.0750   -0.3917    0.0000 C   0  0  0  0  0  0  0  0  0  0  0  0
  2  5  1  0
  3  4  2  0
  4  1  1  0
  5  6  2  0
  6  1  1  0
  7  2  2  0
  8  1  2  0
  9  6  1  0
 10  5  1  0
 11  4  1  0
 12  3  1  0
 13 16  1  0
 14 11  2  0
 15 14  1  0
 16  9  2  0
  2  3  1  0
 10 13  2  0
 15 12  2  0
M  END
>  <ID>  (2026) 


>  <MOLENAME>  (2026) 
ANTHRAQUINONE

>  <therap>  (2026) 
irritant

>  <ref>  (2026) 
nan

>  <cas#>  (2026) 
84-65-1

>  <source>  (2026) 
synthetic

>  <status>  (2026) 
experimental

>  <tradename>  (2026) 
nan

>  <SMILES>  (2026) 
O=C1c2c(cccc2)C(=O)c2c1cccc2

>  <standardized_failed>  (2026) 
False

$$$$

     RDKit          2D

 36 40  0  0  0  0  0  0  0  0999 V2000
    7.8167   -1.2458    0.0000 C   0  0  0  0  0  0  0  0  0  0  0  0
    5.6667   -2.4708    0.0000 C   0  0  0  0  0  0  0  0  0  0  0  0
    5.6667   -3.2958    0.0000 C   0  0  0  0  0  0  0  0  0  0  0  0
    7.8042   -2.0708    0.0000 C   0  0  0  0  0  0  0  0  0  0  0  0
    6.3792   -2.0583    0.0000 C   0  0  0  0  0  0  0  0  0  0  0  0
    7.0917   -2.4708    0.0000 C   0  0  0  0  0  0  0  0  0  0  0  0
    8.6042   -1.0083    0.0000 C   0  0  0  0  0  0  0  0  0  0  0  0
    6.3792   -3.7083    0.0000 C   0  0  0  0  0  0  0  0  0  0  0  0
    7.1042   -0.8208    0.0000 C   0  0  0  0  0  0  0  0  0  0  0  0
    7.0917   -3.2958    0.0000 C   0  0  0  0  0  0  0  0  0  0  0  0
    6.3917   -1.2333    0.0000 C   0  0  0  0  0  0  0  0  0  0  0  0
    8.5792   -2.3333    0.0000 C   0  0  0  0  0  0  0  0  0  0  0  0
    4.9542   -2.0458    0.0000 C   0  0  0  0  0  0  0  0  0  0  0  0
    9.0792   -1.6833    0.0000 C   0  0  0  0  0  0  0  0  0  0  0  0
    2.8167   -3.2958    0.0000 C   0  0  0  0  0  0  0  0  0  0  0  0
    4.9542   -3.6958    0.0000 C   0  0  0  0  0  0  0  0  0  0  0  0
    3.5292   -3.7083    0.0000 O   0  0  0  0  0  0  0  0  0  0  0  0
    4.2417   -3.2958    0.0000 C   0  0  0  0  0  0  0  0  0  0  0  0
    2.8167   -2.4708    0.0000 O   0  0  0  0  0  0  0  0  0  0  0  0
    9.0042   -0.2958    0.0000 C   0  0  0  0  0  0  0  0  0  0  0  0
    4.2417   -2.4708    0.0000 C   0  0  0  0  0  0  0  0  0  0  0  0
    7.8167   -0.4208    0.0000 C   0  0  0  0  0  0  0  0  0  0  0  0
    5.6667   -1.6458    0.0000 C   0  0  0  0  0  0  0  0  0  0  0  0
   10.2542   -0.9958    0.0000 C   0  0  0  0  0  0  0  0  0  0  0  0
    9.8292   -0.2833    0.0000 C   0  0  0  0  0  0  0  0  0  0  0  0
    8.5917    0.4167    0.0000 C   0  0  0  0  0  0  0  0  0  0  0  0
   11.0792   -0.9833    0.0000 C   0  0  0  0  0  0  0  0  0  0  0  0
   11.4917   -1.6958    0.0000 C   0  0  0  0  0  0  0  0  0  0  0  0
   11.0917   -2.4083    0.0000 C   0  0  0  0  0  0  0  0  0  0  0  0
   12.3167   -1.6833    0.0000 C   0  0  0  0  0  0  0  0  0  0  0  0
    2.1042   -3.7083    0.0000 C   0  0  0  0  0  0  0  0  0  0  0  0
    1.3904   -3.2904    0.0000 C   0  0  0  0  0  0  0  0  0  0  0  0
    0.6737   -3.6995    0.0000 C   0  0  0  0  0  0  0  0  0  0  0  0
    0.6695   -4.5264    0.0000 C   0  0  0  0  0  0  0  0  0  0  0  0
    1.3880   -4.9425    0.0000 C   0  0  0  0  0  0  0  0  0  0  0  0
    2.1018   -4.5310    0.0000 C   0  0  0  0  0  0  0  0  0  0  0  0
  7  1  1  0
  8 10  1  0
  9  1  1  0
 10  6  1  0
 11  9  1  0
 12  4  1  0
 13  2  1  0
 14  7  1  0
 15 17  1  0
 16  3  1  0
 18 17  1  1
 18 16  1  0
 19 15  2  0
  7 20  1  1
 21 13  1  0
 31 15  1  0
  1 22  1  1
  2 23  1  1
 24 25  1  0
 25 20  1  0
 26 20  1  0
 27 24  1  0
 28 27  1  0
 29 28  1  0
 30 28  1  0
 11  5  1  0
 14 12  1  0
  8  3  2  0
 21 18  1  0
  2  5  1  0
 31 32  2  0
  3  2  1  0
 32 33  1  0
  4  1  1  0
 33 34  2  0
  5  6  1  0
 34 35  1  0
  6  4  1  0
 35 36  2  0
 36 31  1  0
M  END
>  <ID>  (2027) 


>  <MOLENAME>  (2027) 
CHOLESTERYL BENZOATE

>  <therap>  (2027) 
nan

>  <ref>  (2027) 
nan

>  <cas#>  (2027) 
604-32-0

>  <source>  (2027) 
semisynthetic

>  <status>  (2027) 
undetermined activity

>  <tradename>  (2027) 
nan

>  <SMILES>  (2027) 
CC(C)CCCC(C)[C@H]1CCC2C3CC=C4C[C@@H](OC(=O)c5ccccc5)CC[C@]4(C)C3CC[C@@]21C

>  <standardized_failed>  (2027) 
False

$$$$

     RDKit          2D

  6  6  0  0  0  0  0  0  0  0999 V2000
    3.5792   -0.7417    0.0000 C   0  0  0  0  0  0  0  0  0  0  0  0
    2.9125   -0.2542    0.0000 C   0  0  0  0  0  0  0  0  0  0  0  0
    3.3250   -1.5292    0.0000 S   0  0  0  0  0  0  0  0  0  0  0  0
    2.5000   -1.5292    0.0000 S   0  0  0  0  0  0  0  0  0  0  0  0
    2.2458   -0.7417    0.0000 C   0  0  0  0  0  0  0  0  0  0  0  0
    4.3667   -0.4875    0.0000 S   0  0  0  0  0  0  0  0  0  0  0  0
  2  1  1  0
  3  1  1  0
  4  3  1  0
  5  2  2  0
  6  1  2  0
  4  5  1  0
M  END
>  <ID>  (2028) 


>  <MOLENAME>  (2028) 
3H-1.2-DITHIOLE-3-THIONE

>  <therap>  (2028) 
antioxidant, antineoplastic

>  <ref>  (2028) 
Free Rad Biomed 28:944 (2000)

>  <cas#>  (2028) 
nan

>  <source>  (2028) 
synthetic; D3T

>  <status>  (2028) 
experimental

>  <tradename>  (2028) 
nan

>  <SMILES>  (2028) 
S=c1ccss1

>  <standardized_failed>  (2028) 
False

$$$$

     RDKit          2D

 18 19  0  0  0  0  0  0  0  0999 V2000
    2.5125   -1.8292    0.0000 C   0  0  0  0  0  0  0  0  0  0  0  0
    3.2292   -2.2417    0.0000 O   0  0  0  0  0  0  0  0  0  0  0  0
    2.5167   -0.9958    0.0000 C   0  0  0  0  0  0  0  0  0  0  0  0
    1.8000   -2.2375    0.0000 C   0  0  0  0  0  0  0  0  0  0  0  0
    1.0875   -1.0000    0.0000 C   0  0  0  0  0  0  0  0  0  0  0  0
    3.9542   -1.8292    0.0000 C   0  0  0  0  0  0  0  0  0  0  0  0
    1.8000   -0.5833    0.0000 C   0  0  0  0  0  0  0  0  0  0  0  0
    1.0875   -1.8250    0.0000 C   0  0  0  0  0  0  0  0  0  0  0  0
    4.1667   -2.6250    0.0000 C   0  0  0  0  0  0  0  0  0  0  0  0
    3.2333   -0.5750    0.0000 C   0  0  0  0  0  0  0  0  0  0  0  0
    3.9542   -0.9958    0.0000 C   0  0  0  0  0  0  0  0  0  0  0  0
    3.5792   -3.2042    0.0000 O   0  0  0  0  0  0  0  0  0  0  0  0
    0.3750   -0.5875    0.0000 O   0  0  0  0  0  0  0  0  0  0  0  0
    4.9625   -2.8375    0.0000 O   0  0  0  0  0  0  0  0  0  0  0  0
    1.8000   -3.0625    0.0000 C   0  0  0  0  0  0  0  0  0  0  0  0
    1.7958    0.2417    0.0000 C   0  0  0  0  0  0  0  0  0  0  0  0
    0.3708   -2.2375    0.0000 C   0  0  0  0  0  0  0  0  0  0  0  0
    4.7792   -1.8292    0.0000 C   0  0  0  0  0  0  0  0  0  0  0  0
  2  1  1  0
  3  1  2  0
  4  1  1  0
  5  8  1  0
  6  2  1  0
  7  3  1  0
  8  4  2  0
  9  6  1  0
 10  3  1  0
 11 10  1  0
 12  9  2  0
 13  5  1  0
 14  9  1  0
 15  4  1  0
 16  7  1  0
 17  8  1  0
 18  6  1  0
  5  7  2  0
 11  6  1  0
M  END
>  <ID>  (2029) 


>  <MOLENAME>  (2029) 
TROLOX

>  <therap>  (2029) 
antioxidant

>  <ref>  (2029) 
Food Chem Toxicol 42:45 (2004); Bioorg Med Chem Letts 15:2745 (2005); Environ Toxicol Pharmacol 22:15 (2006)

>  <cas#>  (2029) 
53188-07-1

>  <source>  (2029) 
synthetic

>  <status>  (2029) 
experimental

>  <tradename>  (2029) 
nan

>  <SMILES>  (2029) 
Cc1c(C)c2c(CCC(C)(C(=O)O)O2)c(C)c1O

>  <standardized_failed>  (2029) 
False

$$$$

     RDKit          2D

 12 13  0  0  0  0  0  0  0  0999 V2000
    4.1667   -4.4042    0.0000 C   0  0  0  0  0  0  0  0  0  0  0  0
    4.8875   -4.7792    0.0000 C   0  0  0  0  0  0  0  0  0  0  0  0
    4.8792   -5.7042    0.0000 C   0  0  0  0  0  0  0  0  0  0  0  0
    5.8417   -4.2167    0.0000 C   0  0  0  0  0  0  0  0  0  0  0  0
    4.1667   -5.2917    0.0000 C   0  0  0  0  0  0  0  0  0  0  0  0
    5.1292   -3.8000    0.0000 C   0  0  0  0  0  0  0  0  0  0  0  0
    5.8417   -5.0417    0.0000 C   0  0  0  0  0  0  0  0  0  0  0  0
    6.5542   -3.8042    0.0000 N   0  0  0  0  0  0  0  0  0  0  0  0
    7.2667   -4.2167    0.0000 O   0  0  0  0  0  0  0  0  0  0  0  0
    5.0417   -4.1542    0.0000 C   0  0  0  0  0  0  0  0  0  0  0  0
    5.5125   -4.9292    0.0000 C   0  0  0  0  0  0  0  0  0  0  0  0
    5.1292   -2.9750    0.0000 C   0  0  0  0  0  0  0  0  0  0  0  0
  1  2  1  0
  3  5  1  6
  4  6  1  0
  1  5  1  6
  6  1  1  0
  7  4  1  0
  8  4  2  0
  9  8  1  0
 10  2  1  0
 11  2  1  0
 12  6  1  0
  3  2  1  0
  7  3  1  0
M  END
>  <ID>  (2030) 


>  <MOLENAME>  (2030) 
3-PINANONE OXIME

>  <therap>  (2030) 
nan

>  <ref>  (2030) 
nan

>  <cas#>  (2030) 
nan

>  <source>  (2030) 
derivative

>  <status>  (2030) 
undetermined activity

>  <tradename>  (2030) 
nan

>  <SMILES>  (2030) 
CC1/C(=N/O)C[C@@H]2C[C@H]1C2(C)C

>  <standardized_failed>  (2030) 
False

$$$$

     RDKit          2D

 30 29  0  0  0  0  0  0  0  0999 V2000
    7.1375   -0.5042    0.0000 C   0  0  0  0  0  0  0  0  0  0  0  0
    7.1375    0.3208    0.0000 C   0  0  0  0  0  0  0  0  0  0  0  0
    7.1792   -1.3167    0.0000 C   0  0  0  0  0  0  0  0  0  0  0  0
    7.8500   -0.9167    0.0000 C   0  0  0  0  0  0  0  0  0  0  0  0
    7.8500    0.7250    0.0000 C   0  0  0  0  0  0  0  0  0  0  0  0
    6.3875   -1.5292    0.0000 C   0  0  0  0  0  0  0  0  0  0  0  0
    8.5542   -0.5042    0.0000 O   0  0  0  0  0  0  0  0  0  0  0  0
    7.8500    1.5458    0.0000 O   0  0  0  0  0  0  0  0  0  0  0  0
    6.1667   -2.3125    0.0000 O   0  0  0  0  0  0  0  0  0  0  0  0
    6.4042   -0.4917    0.0000 O   0  0  0  0  0  0  0  0  0  0  0  0
    7.8500   -1.7375    0.0000 O   0  0  0  0  0  0  0  0  0  0  0  0
    8.5542    0.3208    0.0000 O   0  0  0  0  0  0  0  0  0  0  0  0
    5.8042   -0.9500    0.0000 O   0  0  0  0  0  0  0  0  0  0  0  0
    6.4250    0.7250    0.0000 C   0  0  0  0  0  0  0  0  0  0  0  0
    8.5625   -2.1500    0.0000 C   0  0  0  0  0  0  0  0  0  0  0  0
    9.2667    0.7375    0.0000 C   0  0  0  0  0  0  0  0  0  0  0  0
    4.6917   -0.9417    0.0000 C   0  0  0  0  0  0  0  0  0  0  0  0
    5.7125    0.3208    0.0000 C   0  0  0  0  0  0  0  0  0  0  0  0
   -2.1083    0.7250    0.0000 C   0  0  0  0  0  0  0  0  0  0  0  0
   -1.4000    0.3208    0.0000 C   0  0  0  0  0  0  0  0  0  0  0  0
    0.0250    0.3208    0.0000 C   0  0  0  0  0  0  0  0  0  0  0  0
    0.7375    0.7250    0.0000 C   0  0  0  0  0  0  0  0  0  0  0  0
    1.4417    0.3208    0.0000 C   0  0  0  0  0  0  0  0  0  0  0  0
    2.1625    0.7250    0.0000 C   0  0  0  0  0  0  0  0  0  0  0  0
    2.8667    0.3208    0.0000 C   0  0  0  0  0  0  0  0  0  0  0  0
    3.5792    0.7250    0.0000 C   0  0  0  0  0  0  0  0  0  0  0  0
    4.2917    0.3208    0.0000 C   0  0  0  0  0  0  0  0  0  0  0  0
    5.0042    0.7250    0.0000 C   0  0  0  0  0  0  0  0  0  0  0  0
   -0.6833    0.7250    0.0000 C   0  0  0  0  0  0  0  0  0  0  0  0
   -2.8125    0.3208    0.0000 C   0  0  0  0  0  0  0  0  0  0  0  0
  2  1  1  0
  3  1  1  0
  4  1  1  0
  5  2  1  0
  6  3  1  0
  7  4  2  0
  8  5  2  0
  9  6  2  0
 10  1  1  0
 11  4  1  0
 12  5  1  0
 13  6  1  0
 14  2  1  0
 15 11  1  0
 16 12  1  0
 17 13  1  0
 18 14  1  0
 19 20  1  0
 20 29  1  0
 21 22  1  0
 22 23  1  0
 23 24  1  0
 24 25  1  0
 25 26  1  0
 26 27  1  0
 27 28  1  0
 28 18  1  0
 29 21  1  0
 30 19  1  0
M  END
>  <ID>  (2031) 


>  <MOLENAME>  (2031) 
DIMETHYL CAPERATATE

>  <therap>  (2031) 
nan

>  <ref>  (2031) 
J Nat Prod 29:43 (1966); J Pharm Sci, 56:1611 (1967); 57:1804 (1968); Acta Chem Scand, 29:889 (1975)

>  <cas#>  (2031) 
nan

>  <source>  (2031) 
lichens: Parmelia, Mycoblastus, Nephromopsis spp

>  <status>  (2031) 
undetermined activity

>  <tradename>  (2031) 
nan

>  <SMILES>  (2031) 
CCCCCCCCCCCCCCC(C(=O)OC)C(O)(CC(=O)OC)C(=O)OC

>  <standardized_failed>  (2031) 
False

$$$$

     RDKit          2D

 15 15  0  0  0  0  0  0  0  0999 V2000
    3.1875   -2.4917    0.0000 C   0  0  0  0  0  0  0  0  0  0  0  0
    3.1875   -3.3167    0.0000 C   0  0  0  0  0  0  0  0  0  0  0  0
    2.4750   -2.0792    0.0000 C   0  0  0  0  0  0  0  0  0  0  0  0
    3.9000   -2.0792    0.0000 C   0  0  0  0  0  0  0  0  0  0  0  0
    4.6125   -2.4917    0.0000 C   0  0  0  0  0  0  0  0  0  0  0  0
    4.6042   -3.3167    0.0000 O   0  0  0  0  0  0  0  0  0  0  0  0
    2.4750   -1.2542    0.0000 O   0  0  0  0  0  0  0  0  0  0  0  0
    2.4667   -3.7292    0.0000 C   0  0  0  0  0  0  0  0  0  0  0  0
    5.3250   -2.0792    0.0000 O   0  0  0  0  0  0  0  0  0  0  0  0
    1.7625   -2.4917    0.0000 C   0  0  0  0  0  0  0  0  0  0  0  0
    1.7542   -3.3125    0.0000 C   0  0  0  0  0  0  0  0  0  0  0  0
    2.4750   -4.5500    0.0000 C   0  0  0  0  0  0  0  0  0  0  0  0
    1.7625   -4.9625    0.0000 C   0  0  0  0  0  0  0  0  0  0  0  0
    1.0417   -3.7250    0.0000 C   0  0  0  0  0  0  0  0  0  0  0  0
    1.0417   -4.5500    0.0000 C   0  0  0  0  0  0  0  0  0  0  0  0
  2  1  2  0
  3  1  1  0
  4  1  1  0
  5  4  1  0
  6  5  2  0
  7  3  2  0
  8  2  1  0
  9  5  1  0
 10  3  1  0
 11  8  2  0
 12  8  1  0
 13 12  2  0
 14 11  1  0
 15 13  1  0
 15 14  2  0
M  END
>  <ID>  (2032) 


>  <MOLENAME>  (2032) 
LEVULINIC ACID.  3-BENZYLIDENYL-

>  <therap>  (2032) 
nan

>  <ref>  (2032) 
nan

>  <cas#>  (2032) 
nan

>  <source>  (2032) 
derivative

>  <status>  (2032) 
undetermined activity

>  <tradename>  (2032) 
nan

>  <SMILES>  (2032) 
CC(=O)/C(=C\c1ccccc1)CC(=O)O

>  <standardized_failed>  (2032) 
False

$$$$

     RDKit          2D

 11 10  0  0  0  0  0  0  0  0999 V2000
    6.4792   -2.4167    0.0000 C   0  0  0  0  0  0  0  0  0  0  0  0
    5.7667   -2.0125    0.0000 C   0  0  0  0  0  0  0  0  0  0  0  0
    2.9167   -2.0167    0.0000 C   0  0  0  0  0  0  0  0  0  0  0  0
    3.6292   -2.4292    0.0000 C   0  0  0  0  0  0  0  0  0  0  0  0
    6.4792   -3.2417    0.0000 C   0  0  0  0  0  0  0  0  0  0  0  0
    6.3542   -1.4292    0.0000 O   0  0  0  0  0  0  0  0  0  0  0  0
    4.3417   -2.0167    0.0000 C   0  0  0  0  0  0  0  0  0  0  0  0
    5.0542   -2.4250    0.0000 C   0  0  0  0  0  0  0  0  0  0  0  0
    2.2042   -2.4292    0.0000 C   0  0  0  0  0  0  0  0  0  0  0  0
    2.9167   -1.1917    0.0000 C   0  0  0  0  0  0  0  0  0  0  0  0
    5.3625   -1.3042    0.0000 C   0  0  0  0  0  0  0  0  0  0  0  0
  2  1  1  0
  3  4  2  0
  4  7  1  0
  5  1  2  0
  2  6  1  0
  7  8  1  0
  8  2  1  0
  9  3  1  0
 10  3  1  0
  2 11  1  6
M  END
>  <ID>  (2033) 


>  <MOLENAME>  (2033) 
LINALOOL (+)

>  <therap>  (2033) 
nan

>  <ref>  (2033) 
nan

>  <cas#>  (2033) 
nan

>  <source>  (2033) 
Mentha arvensis and related essential oils

>  <status>  (2033) 
undetermined activity

>  <tradename>  (2033) 
nan

>  <SMILES>  (2033) 
C=C[C@](C)(O)CCC=C(C)C

>  <standardized_failed>  (2033) 
False

$$$$

     RDKit          2D

 13 14  0  0  0  0  0  0  0  0999 V2000
    5.8792   -3.0125    0.0000 C   0  0  0  0  0  0  0  0  0  0  0  0
    5.8792   -2.1792    0.0000 C   0  0  0  0  0  0  0  0  0  0  0  0
    5.1625   -1.7667    0.0000 C   0  0  0  0  0  0  0  0  0  0  0  0
    5.1625   -3.4250    0.0000 C   0  0  0  0  0  0  0  0  0  0  0  0
    4.4500   -2.1792    0.0000 C   0  0  0  0  0  0  0  0  0  0  0  0
    4.4417   -3.0042    0.0000 C   0  0  0  0  0  0  0  0  0  0  0  0
    5.1625   -0.9417    0.0000 O   0  0  0  0  0  0  0  0  0  0  0  0
    5.1542   -4.2500    0.0000 O   0  0  0  0  0  0  0  0  0  0  0  0
    6.5917   -1.7750    0.0000 O   0  0  0  0  0  0  0  0  0  0  0  0
    3.7292   -1.7667    0.0000 C   0  0  0  0  0  0  0  0  0  0  0  0
    3.7292   -3.4250    0.0000 C   0  0  0  0  0  0  0  0  0  0  0  0
    3.0167   -2.1875    0.0000 C   0  0  0  0  0  0  0  0  0  0  0  0
    3.0167   -3.0125    0.0000 C   0  0  0  0  0  0  0  0  0  0  0  0
  2  1  2  0
  3  2  1  0
  4  1  1  0
  5  6  2  0
  6  4  1  0
  7  3  2  0
  8  4  2  0
  9  2  1  0
 10  5  1  0
 11  6  1  0
 12 13  1  0
 13 11  2  0
  3  5  1  0
 12 10  2  0
M  END
>  <ID>  (2034) 


>  <MOLENAME>  (2034) 
LAWSONE

>  <therap>  (2034) 
nan

>  <ref>  (2034) 
J Am Chem Soc 70: 3165 (1948)

>  <cas#>  (2034) 
83-72-7

>  <source>  (2034) 
Lawsonia spp.

>  <status>  (2034) 
undetermined activity

>  <tradename>  (2034) 
nan

>  <SMILES>  (2034) 
O=C1C=C(O)C(=O)c2c1cccc2

>  <standardized_failed>  (2034) 
False

$$$$

     RDKit          2D

 26 29  0  0  0  0  0  0  0  0999 V2000
    3.7417    0.0833    0.0000 C   0  0  0  0  0  0  0  0  0  0  0  0
    3.2500    0.7458    0.0000 C   0  0  0  0  0  0  0  0  0  0  0  0
    3.2542   -0.5917    0.0000 N   0  0  0  0  0  0  0  0  0  0  0  0
    4.5542    0.1708    0.0000 C   0  0  0  0  0  0  0  0  0  0  0  0
    5.8667   -0.4167    0.0000 C   0  0  0  0  0  0  0  0  0  0  0  0
    4.8917    0.9250    0.0000 N   0  0  0  0  0  0  0  0  0  0  0  0
    6.3417   -1.0875    0.0000 C   0  0  0  0  0  0  0  0  0  0  0  0
    5.0417   -0.5042    0.0000 C   0  0  0  0  0  0  0  0  0  0  0  0
    2.4667    0.4833    0.0000 C   0  0  0  0  0  0  0  0  0  0  0  0
    2.4667   -0.3417    0.0000 C   0  0  0  0  0  0  0  0  0  0  0  0
    6.2042    0.3375    0.0000 C   0  0  0  0  0  0  0  0  0  0  0  0
    5.9292   -1.8000    0.0000 C   0  0  0  0  0  0  0  0  0  0  0  0
    5.7167    1.0208    0.0000 C   0  0  0  0  0  0  0  0  0  0  0  0
    3.5792    1.5083    0.0000 C   0  0  0  0  0  0  0  0  0  0  0  0
    4.4042    1.5958    0.0000 C   0  0  0  0  0  0  0  0  0  0  0  0
    7.1667   -1.0042    0.0000 C   0  0  0  0  0  0  0  0  0  0  0  0
    5.1042   -1.7875    0.0000 O   0  0  0  0  0  0  0  0  0  0  0  0
    7.0292    0.4250    0.0000 C   0  0  0  0  0  0  0  0  0  0  0  0
    7.5125   -0.2500    0.0000 C   0  0  0  0  0  0  0  0  0  0  0  0
    6.3292   -2.5167    0.0000 O   0  0  0  0  0  0  0  0  0  0  0  0
    7.7542   -1.5917    0.0000 O   0  0  0  0  0  0  0  0  0  0  0  0
    1.7500    0.8958    0.0000 C   0  0  0  0  0  0  0  0  0  0  0  0
    1.7500   -0.7542    0.0000 C   0  0  0  0  0  0  0  0  0  0  0  0
    8.3250   -3.0875    0.0000 O   0  0  0  0  0  0  0  0  0  0  0  0
    1.0375    0.4833    0.0000 C   0  0  0  0  0  0  0  0  0  0  0  0
    1.0375   -0.3417    0.0000 C   0  0  0  0  0  0  0  0  0  0  0  0
  2  1  2  0
  3  1  1  0
  4  1  1  0
  5  8  1  1
  6  4  1  0
  5  7  1  0
  4  8  1  1
  9  2  1  0
 10  3  1  0
 11  5  1  0
  7 12  1  6
 13  6  1  0
 14  2  1  0
 15  6  1  0
 16  7  1  0
 17 12  2  0
 11 18  1  6
 19 18  1  0
 20 12  1  0
 16 21  1  6
 22  9  2  0
 23 10  2  0
 25 22  1  0
 26 23  1  0
  9 10  1  0
 15 14  1  0
 11 13  1  0
 25 26  2  0
 16 19  1  0
M  END
>  <ID>  (2035) 


>  <MOLENAME>  (2035) 
YOHIMBIC ACID HYDRATE

>  <therap>  (2035) 
nan

>  <ref>  (2035) 
J Chem Soc 123: 3003 (1923)

>  <cas#>  (2035) 
522-87-2

>  <source>  (2035) 
derivative; yohimbinic acid

>  <status>  (2035) 
undetermined activity

>  <tradename>  (2035) 
nan

>  <SMILES>  (2035) 
O=C(O)[C@H]1[C@@H](O)CC[C@H]2CN3CCc4c([nH]c5ccccc45)[C@@H]3C[C@@H]21

>  <standardized_failed>  (2035) 
False

$$$$

     RDKit          2D

 12 13  0  0  0  0  0  0  0  0999 V2000
    2.8667   -0.7625    0.0000 C   0  0  0  0  0  0  0  0  0  0  0  0
    2.8667    0.0625    0.0000 C   0  0  0  0  0  0  0  0  0  0  0  0
    3.5792   -1.1750    0.0000 C   0  0  0  0  0  0  0  0  0  0  0  0
    3.5792    0.4750    0.0000 C   0  0  0  0  0  0  0  0  0  0  0  0
    4.2917   -0.7625    0.0000 C   0  0  0  0  0  0  0  0  0  0  0  0
    4.2917    0.0625    0.0000 C   0  0  0  0  0  0  0  0  0  0  0  0
    3.5792   -2.0000    0.0000 O   0  0  0  0  0  0  0  0  0  0  0  0
    3.5792    1.3000    0.0000 O   0  0  0  0  0  0  0  0  0  0  0  0
    2.1542   -1.1750    0.0000 C   0  0  0  0  0  0  0  0  0  0  0  0
    2.1542    0.4750    0.0000 C   0  0  0  0  0  0  0  0  0  0  0  0
    1.4375    0.0625    0.0000 C   0  0  0  0  0  0  0  0  0  0  0  0
    1.4375   -0.7625    0.0000 C   0  0  0  0  0  0  0  0  0  0  0  0
  2  1  2  0
  3  1  1  0
  4  2  1  0
  5  3  1  0
  6  5  2  0
  7  3  2  0
  8  4  2  0
  9  1  1  0
 10  2  1  0
 11 12  1  0
 12  9  2  0
 11 10  2  0
  6  4  1  0
M  END
>  <ID>  (2036) 


>  <MOLENAME>  (2036) 
1.4-NAPHTHOQUINONE

>  <therap>  (2036) 
antibacterial, antineoplastic

>  <ref>  (2036) 
J Biol Chem 168:257 (1947); Cancer Letts 278:34 (2009)

>  <cas#>  (2036) 
130-15-4

>  <source>  (2036) 
coal tar product

>  <status>  (2036) 
experimental

>  <tradename>  (2036) 
nan

>  <SMILES>  (2036) 
O=C1C=CC(=O)c2c1cccc2

>  <standardized_failed>  (2036) 
False

$$$$

     RDKit          2D

 14 14  0  0  0  0  0  0  0  0999 V2000
    5.7542    2.0458    0.0000 O   0  0  0  0  0  0  0  0  0  0  0  0
    7.1792    2.0458    0.0000 C   0  0  0  0  0  0  0  0  0  0  0  0
    5.0417    1.6250    0.0000 C   0  0  0  0  0  0  0  0  0  0  0  0
    5.0417    0.7958    0.0000 C   0  0  0  0  0  0  0  0  0  0  0  0
    4.3250    0.3833    0.0000 C   0  0  0  0  0  0  0  0  0  0  0  0
    6.4667    1.6333    0.0000 C   0  0  0  0  0  0  0  0  0  0  0  0
    7.1792    2.8708    0.0000 O   0  0  0  0  0  0  0  0  0  0  0  0
    4.3250    2.0375    0.0000 C   0  0  0  0  0  0  0  0  0  0  0  0
    3.6125    0.7958    0.0000 C   0  0  0  0  0  0  0  0  0  0  0  0
    5.7542    0.3833    0.0000 Cl  0  0  0  0  0  0  0  0  0  0  0  0
    7.9000    1.6375    0.0000 O   0  0  0  0  0  0  0  0  0  0  0  0
    3.6125    1.6250    0.0000 C   0  0  0  0  0  0  0  0  0  0  0  0
    2.8917    0.3833    0.0000 Cl  0  0  0  0  0  0  0  0  0  0  0  0
    6.4667    0.8083    0.0000 C   0  0  0  0  0  0  0  0  0  0  0  0
  2  6  1  0
  3  1  1  0
  4  3  2  0
  5  4  1  0
  6  1  1  0
  7  2  2  0
  8  3  1  0
  9 12  1  0
 10  4  1  0
 11  2  1  0
 12  8  2  0
 13  9  1  0
 14  6  1  0
  9  5  2  0
M  END
>  <ID>  (2037) 


>  <MOLENAME>  (2037) 
DICHLOROPROP

>  <therap>  (2037) 
herbicide

>  <ref>  (2037) 
Environ Sci Technol 30:2449 (1996)

>  <cas#>  (2037) 
120-36-5

>  <source>  (2037) 
synthetic; 2,4-DP

>  <status>  (2037) 
agricultural use

>  <tradename>  (2037) 
nan

>  <SMILES>  (2037) 
CC(Oc1c(Cl)cc(Cl)cc1)C(=O)O

>  <standardized_failed>  (2037) 
False

$$$$

     RDKit          2D

 15 16  0  0  0  0  0  0  0  0999 V2000
    3.4542    0.4083    0.0000 C   0  0  0  0  0  0  0  0  0  0  0  0
    3.4542   -0.4250    0.0000 C   0  0  0  0  0  0  0  0  0  0  0  0
    2.7292   -0.8375    0.0000 O   0  0  0  0  0  0  0  0  0  0  0  0
    2.7333    0.8292    0.0000 C   0  0  0  0  0  0  0  0  0  0  0  0
    4.1708    0.8167    0.0000 N   0  0  0  0  0  0  0  0  0  0  0  0
    2.0125   -0.4250    0.0000 C   0  0  0  0  0  0  0  0  0  0  0  0
    2.0167    0.4083    0.0000 C   0  0  0  0  0  0  0  0  0  0  0  0
    4.8833    0.4042    0.0000 C   0  0  0  0  0  0  0  0  0  0  0  0
    4.1667   -0.8417    0.0000 O   0  0  0  0  0  0  0  0  0  0  0  0
    4.8833   -0.4208    0.0000 O   0  0  0  0  0  0  0  0  0  0  0  0
    1.3000   -0.8333    0.0000 C   0  0  0  0  0  0  0  0  0  0  0  0
    1.3000    0.8208    0.0000 C   0  0  0  0  0  0  0  0  0  0  0  0
    5.6000    0.8167    0.0000 C   0  0  0  0  0  0  0  0  0  0  0  0
    0.5875   -0.4208    0.0000 C   0  0  0  0  0  0  0  0  0  0  0  0
    0.5875    0.4083    0.0000 C   0  0  0  0  0  0  0  0  0  0  0  0
  2  1  1  0
  3  2  1  0
  4  1  2  0
  5  1  1  0
  6  7  2  0
  7  4  1  0
  8  5  1  0
  9  2  2  0
 10  8  2  0
 11  6  1  0
 12  7  1  0
 13  8  1  0
 14 11  2  0
 15 12  2  0
  3  6  1  0
 14 15  1  0
M  END
>  <ID>  (2038) 


>  <MOLENAME>  (2038) 
3-ACETAMIDOCOUMARIN

>  <therap>  (2038) 
nan

>  <ref>  (2038) 
nan

>  <cas#>  (2038) 
nan

>  <source>  (2038) 
synthetic

>  <status>  (2038) 
experimental

>  <tradename>  (2038) 
nan

>  <SMILES>  (2038) 
CC(=O)Nc1cc2c(cccc2)oc1=O

>  <standardized_failed>  (2038) 
False

$$$$

     RDKit          2D

 19 22  0  0  0  0  0  0  0  0999 V2000
    3.1375   -0.8042    0.0000 C   0  0  0  0  0  0  0  0  0  0  0  0
    4.5292   -1.1042    0.0000 C   0  0  0  0  0  0  0  0  0  0  0  0
    2.0542   -1.5917    0.0000 N   0  0  0  0  0  0  0  0  0  0  0  0
    5.2000   -2.2542    0.0000 N   0  0  0  0  0  0  0  0  0  0  0  0
    4.4417   -1.9167    0.0000 C   0  0  0  0  0  0  0  0  0  0  0  0
    2.8792   -1.5917    0.0000 C   0  0  0  0  0  0  0  0  0  0  0  0
    3.9250   -0.5500    0.0000 C   0  0  0  0  0  0  0  0  0  0  0  0
    2.4667   -0.3167    0.0000 C   0  0  0  0  0  0  0  0  0  0  0  0
    5.3417   -0.9292    0.0000 C   0  0  0  0  0  0  0  0  0  0  0  0
    1.8042   -0.8042    0.0000 C   0  0  0  0  0  0  0  0  0  0  0  0
    5.7500   -1.6417    0.0000 C   0  0  0  0  0  0  0  0  0  0  0  0
    2.3792    0.4958    0.0000 C   0  0  0  0  0  0  0  0  0  0  0  0
    5.7500   -0.2167    0.0000 C   0  0  0  0  0  0  0  0  0  0  0  0
    6.5667   -1.6417    0.0000 C   0  0  0  0  0  0  0  0  0  0  0  0
    1.0542   -0.4750    0.0000 C   0  0  0  0  0  0  0  0  0  0  0  0
    6.5667   -0.2167    0.0000 C   0  0  0  0  0  0  0  0  0  0  0  0
    1.6292    0.8333    0.0000 C   0  0  0  0  0  0  0  0  0  0  0  0
    0.9667    0.3375    0.0000 C   0  0  0  0  0  0  0  0  0  0  0  0
    6.9792   -0.9375    0.0000 C   0  0  0  0  0  0  0  0  0  0  0  0
  2  7  1  0
  3  6  1  0
  4  5  1  0
  5  2  2  0
  6  1  2  0
  7  1  1  0
  8  1  1  0
  9  2  1  0
 10  8  2  0
 11  9  2  0
 12  8  1  0
 13  9  1  0
 14 11  1  0
 15 10  1  0
 16 13  2  0
 17 12  2  0
 18 17  1  0
 19 16  1  0
  3 10  1  0
 15 18  2  0
 11  4  1  0
 19 14  2  0
M  END
>  <ID>  (2039) 


>  <MOLENAME>  (2039) 
3.3'-DIINDOLYLMETHANE

>  <therap>  (2039) 
apoptosis inducer

>  <ref>  (2039) 
Biochem Biophys Res Commun 228:153 (1996)

>  <cas#>  (2039) 
1968-05-4

>  <source>  (2039) 
synthetic

>  <status>  (2039) 
experimental

>  <tradename>  (2039) 
nan

>  <SMILES>  (2039) 
c1cc2c(cc1)c(Cc1c[nH]c3c1cccc3)c[nH]2

>  <standardized_failed>  (2039) 
False

$$$$

     RDKit          2D

 24 27  0  0  0  0  0  0  0  0999 V2000
    4.2917    0.1625    0.0000 C   0  0  0  0  0  0  0  0  0  0  0  0
    5.0125    0.5750    0.0000 C   0  0  0  0  0  0  0  0  0  0  0  0
    1.4167   -0.6792    0.0000 C   0  0  0  0  0  0  0  0  0  0  0  0
    4.2917   -0.6667    0.0000 C   0  0  0  0  0  0  0  0  0  0  0  0
    3.5875    0.5750    0.0000 C   0  0  0  0  0  0  0  0  0  0  0  0
    2.1292   -1.0917    0.0000 O   0  0  0  0  0  0  0  0  0  0  0  0
    5.7292    0.1625    0.0000 C   0  0  0  0  0  0  0  0  0  0  0  0
    3.5875   -1.0875    0.0000 C   0  0  0  0  0  0  0  0  0  0  0  0
    1.4167    0.1500    0.0000 O   0  0  0  0  0  0  0  0  0  0  0  0
    0.7042   -1.0917    0.0000 C   0  0  0  0  0  0  0  0  0  0  0  0
    2.8667   -0.6667    0.0000 C   0  0  0  0  0  0  0  0  0  0  0  0
    5.0125   -1.0875    0.0000 C   0  0  0  0  0  0  0  0  0  0  0  0
    5.7292   -0.6667    0.0000 C   0  0  0  0  0  0  0  0  0  0  0  0
    2.8667    0.1625    0.0000 C   0  0  0  0  0  0  0  0  0  0  0  0
    4.2917    0.9875    0.0000 C   0  0  0  0  0  0  0  0  0  0  0  0
    5.0125    1.4000    0.0000 C   0  0  0  0  0  0  0  0  0  0  0  0
    6.4542    0.5750    0.0000 C   0  0  0  0  0  0  0  0  0  0  0  0
   -0.0083   -0.6792    0.0000 C   0  0  0  0  0  0  0  0  0  0  0  0
    0.7042   -1.9250    0.0000 C   0  0  0  0  0  0  0  0  0  0  0  0
    5.7292    1.8208    0.0000 C   0  0  0  0  0  0  0  0  0  0  0  0
    6.4542    1.4000    0.0000 C   0  0  0  0  0  0  0  0  0  0  0  0
   -0.7250   -1.0917    0.0000 C   0  0  0  0  0  0  0  0  0  0  0  0
   -0.0083   -2.3375    0.0000 C   0  0  0  0  0  0  0  0  0  0  0  0
   -0.7250   -1.9250    0.0000 C   0  0  0  0  0  0  0  0  0  0  0  0
  2  1  1  0
  3  6  1  0
  4  1  1  0
  5  1  1  0
  6 11  1  0
  7  2  2  0
  8  4  1  0
  9  3  2  0
 10  3  1  0
 11 14  1  0
 12  4  1  0
 13 12  1  0
 14  5  1  0
  1 15  1  1
 16  2  1  0
 17  7  1  0
 18 10  2  0
 19 10  1  0
 20 16  2  0
 21 20  1  0
 22 18  1  0
 23 19  2  0
 24 23  1  0
  8 11  1  0
  7 13  1  0
 21 17  2  0
 22 24  2  0
M  END
>  <ID>  (2040) 


>  <MOLENAME>  (2040) 
3-BENZYLOXY-4.4-BISNOR-8.11.13-PODOCARPATRIENE

>  <therap>  (2040) 
nan

>  <ref>  (2040) 
nan

>  <cas#>  (2040) 
nan

>  <source>  (2040) 
semisynthetic

>  <status>  (2040) 
undetermined activity

>  <tradename>  (2040) 
nan

>  <SMILES>  (2040) 
C[C@]12CCC(OC(=O)c3ccccc3)CC1CCc1c2cccc1

>  <standardized_failed>  (2040) 
False

$$$$

     RDKit          2D

 11 11  0  0  0  0  0  0  0  0999 V2000
    6.6792   -1.8667    0.0000 C   0  0  0  0  0  0  0  0  0  0  0  0
    5.9292   -1.8667    0.0000 C   0  0  0  0  0  0  0  0  0  0  0  0
    7.0542   -2.5167    0.0000 C   0  0  0  0  0  0  0  0  0  0  0  0
    7.8042   -2.5167    0.0000 N   0  0  0  0  0  0  0  0  0  0  0  0
    7.0542   -1.2208    0.0000 O   0  0  0  0  0  0  0  0  0  0  0  0
    5.5542   -2.5167    0.0000 C   0  0  0  0  0  0  0  0  0  0  0  0
    5.5542   -1.2167    0.0000 C   0  0  0  0  0  0  0  0  0  0  0  0
    6.6792   -3.1667    0.0000 C   0  0  0  0  0  0  0  0  0  0  0  0
    4.8042   -1.2167    0.0000 C   0  0  0  0  0  0  0  0  0  0  0  0
    4.8042   -2.5167    0.0000 C   0  0  0  0  0  0  0  0  0  0  0  0
    4.4292   -1.8667    0.0000 C   0  0  0  0  0  0  0  0  0  0  0  0
  2  1  1  0
  3  1  1  0
  3  4  1  0
  1  5  1  1
  6  2  2  0
  7  2  1  0
  3  8  1  1
  9  7  2  0
 10  6  1  0
 11  9  1  0
 10 11  2  0
M  END
>  <ID>  (2041) 


>  <MOLENAME>  (2041) 
1R.2S-PHENYLPROPYLAMINE

>  <therap>  (2041) 
decongestant

>  <ref>  (2041) 
Phytochemistry 16: 9 (1977)

>  <cas#>  (2041) 
14838-15-4

>  <source>  (2041) 
Ephedra vulgaris (MaHuang)

>  <status>  (2041) 
experimental

>  <tradename>  (2041) 
nan

>  <SMILES>  (2041) 
C[C@H](N)[C@H](O)c1ccccc1

>  <standardized_failed>  (2041) 
False

$$$$

     RDKit          2D

 23 25  0  0  0  0  0  0  0  0999 V2000
    6.2750   -4.1917    0.0000 C   0  0  0  0  0  0  0  0  0  0  0  0
    4.9542   -3.9792    0.0000 C   0  0  0  0  0  0  0  0  0  0  0  0
    5.6917   -3.6167    0.0000 C   0  0  0  0  0  0  0  0  0  0  0  0
    5.0667   -4.7917    0.0000 C   0  0  0  0  0  0  0  0  0  0  0  0
    5.8875   -4.9375    0.0000 O   0  0  0  0  0  0  0  0  0  0  0  0
    6.9042   -3.3792    0.0000 C   0  0  0  0  0  0  0  0  0  0  0  0
    4.4250   -5.2917    0.0000 C   0  0  0  0  0  0  0  0  0  0  0  0
    4.2125   -3.6750    0.0000 C   0  0  0  0  0  0  0  0  0  0  0  0
    7.7292   -3.3792    0.0000 C   0  0  0  0  0  0  0  0  0  0  0  0
    6.9042   -4.8250    0.0000 C   0  0  0  0  0  0  0  0  0  0  0  0
    3.6667   -4.9792    0.0000 C   0  0  0  0  0  0  0  0  0  0  0  0
    3.5542   -4.1792    0.0000 C   0  0  0  0  0  0  0  0  0  0  0  0
    8.1417   -4.1000    0.0000 C   0  0  0  0  0  0  0  0  0  0  0  0
    7.7292   -4.8250    0.0000 C   0  0  0  0  0  0  0  0  0  0  0  0
    5.8042   -2.8000    0.0000 O   0  0  0  0  0  0  0  0  0  0  0  0
    8.9750   -4.1167    0.0000 O   0  0  0  0  0  0  0  0  0  0  0  0
    6.7292   -2.6167    0.0000 O   0  0  0  0  0  0  0  0  0  0  0  0
    4.5250   -6.1167    0.0000 Cl  0  0  0  0  0  0  0  0  0  0  0  0
    4.0917   -2.8417    0.0000 O   0  0  0  0  0  0  0  0  0  0  0  0
    3.0042   -5.4792    0.0000 O   0  0  0  0  0  0  0  0  0  0  0  0
    6.4792   -5.5417    0.0000 C   0  0  0  0  0  0  0  0  0  0  0  0
    3.3292   -2.5167    0.0000 C   0  0  0  0  0  0  0  0  0  0  0  0
    2.2542   -5.1542    0.0000 C   0  0  0  0  0  0  0  0  0  0  0  0
  2  3  1  0
  3  1  1  0
  4  5  1  0
  5  1  1  0
  6  1  1  0
  7  4  2  0
  8  2  2  0
  9  6  2  0
 10  1  1  0
 11  7  1  0
 12  8  1  0
 13 14  1  0
 14 10  1  0
 15  3  2  0
 16 13  2  0
 17  6  1  0
 18  7  1  0
 19  8  1  0
 20 11  1  0
 21 10  1  0
 22 19  1  0
 23 20  1  0
  2  4  1  0
  9 13  1  0
 12 11  2  0
M  END
>  <ID>  (2042) 


>  <MOLENAME>  (2042) 
GRISEOFULVIC ACID

>  <therap>  (2042) 
nan

>  <ref>  (2042) 
nan

>  <cas#>  (2042) 
469-54-5

>  <source>  (2042) 
semisynthetic

>  <status>  (2042) 
undetermined activity

>  <tradename>  (2042) 
nan

>  <SMILES>  (2042) 
COc1cc(OC)c2C(=O)C3(Oc2c1Cl)C(O)=CC(=O)CC3C

>  <standardized_failed>  (2042) 
False

$$$$

     RDKit          2D

 15 15  0  0  0  0  0  0  0  0999 V2000
    4.1875   -1.3042    0.0000 C   0  0  0  0  0  0  0  0  0  0  0  0
    3.4667   -1.7167    0.0000 C   0  0  0  0  0  0  0  0  0  0  0  0
    4.9000   -1.7167    0.0000 O   0  0  0  0  0  0  0  0  0  0  0  0
    3.4667   -2.5417    0.0000 C   0  0  0  0  0  0  0  0  0  0  0  0
    2.7542   -1.3000    0.0000 C   0  0  0  0  0  0  0  0  0  0  0  0
    4.1917   -0.4792    0.0000 O   0  0  0  0  0  0  0  0  0  0  0  0
    2.7542   -2.9500    0.0000 C   0  0  0  0  0  0  0  0  0  0  0  0
    5.6167   -1.3042    0.0000 C   0  0  0  0  0  0  0  0  0  0  0  0
    2.0500   -2.5417    0.0000 C   0  0  0  0  0  0  0  0  0  0  0  0
    2.0500   -1.7167    0.0000 C   0  0  0  0  0  0  0  0  0  0  0  0
    1.3292   -2.9542    0.0000 Cl  0  0  0  0  0  0  0  0  0  0  0  0
    4.1875   -2.9542    0.0000 C   0  0  0  0  0  0  0  0  0  0  0  0
    6.3292   -0.8917    0.0000 C   0  0  0  0  0  0  0  0  0  0  0  0
    6.3292   -1.7250    0.0000 C   0  0  0  0  0  0  0  0  0  0  0  0
    5.6167   -0.4792    0.0000 C   0  0  0  0  0  0  0  0  0  0  0  0
  2  1  1  1
  3  1  1  0
  4  2  1  0
  5  2  1  0
  6  1  2  0
  7  4  1  0
  8  3  1  0
  9 10  1  0
 10  5  1  0
 11  9  1  0
  4 12  1  6
 13  8  1  0
 14  8  1  0
 15  8  1  0
  7  9  1  0
M  END
>  <ID>  (2043) 


>  <MOLENAME>  (2043) 
TRIMEDLURE

>  <therap>  (2043) 
arthropod pheromone

>  <ref>  (2043) 
J Econ Entomol 59:1450 (1966)

>  <cas#>  (2043) 
12002-53-8

>  <source>  (2043) 
synthetic; 5-Cl isomer present

>  <status>  (2043) 
agricultural use

>  <tradename>  (2043) 
nan

>  <SMILES>  (2043) 
C[C@@H]1CC(Cl)CC[C@H]1C(=O)OC(C)(C)C

>  <standardized_failed>  (2043) 
False

$$$$

     RDKit          2D

 22 23  0  0  0  0  0  0  0  0999 V2000
    5.4042   -5.8917    0.0000 C   0  0  0  0  0  0  0  0  0  0  0  0
    5.4000   -6.7167    0.0000 C   0  0  0  0  0  0  0  0  0  0  0  0
    6.1167   -5.4792    0.0000 C   0  0  0  0  0  0  0  0  0  0  0  0
    6.8292   -5.9000    0.0000 C   0  0  0  0  0  0  0  0  0  0  0  0
    4.6917   -7.1292    0.0000 C   0  0  0  0  0  0  0  0  0  0  0  0
    6.1125   -7.1292    0.0000 C   0  0  0  0  0  0  0  0  0  0  0  0
    6.1167   -4.6542    0.0000 C   0  0  0  0  0  0  0  0  0  0  0  0
    6.8292   -6.7250    0.0000 C   0  0  0  0  0  0  0  0  0  0  0  0
    6.8375   -3.4167    0.0000 C   0  0  0  0  0  0  0  0  0  0  0  0
    7.5542   -3.0125    0.0000 C   0  0  0  0  0  0  0  0  0  0  0  0
    8.2667   -3.4250    0.0000 C   0  0  0  0  0  0  0  0  0  0  0  0
    6.8375   -4.2417    0.0000 C   0  0  0  0  0  0  0  0  0  0  0  0
    4.6917   -5.4792    0.0000 C   0  0  0  0  0  0  0  0  0  0  0  0
    7.5417   -5.4917    0.0000 O   0  0  0  0  0  0  0  0  0  0  0  0
    5.4000   -5.0667    0.0000 C   0  0  0  0  0  0  0  0  0  0  0  0
    6.0125   -3.4167    0.0000 O   0  0  0  0  0  0  0  0  0  0  0  0
    3.9792   -6.7167    0.0000 C   0  0  0  0  0  0  0  0  0  0  0  0
    3.9792   -5.8917    0.0000 C   0  0  0  0  0  0  0  0  0  0  0  0
    7.5417   -6.3125    0.0000 C   0  0  0  0  0  0  0  0  0  0  0  0
    5.2750   -7.7125    0.0000 C   0  0  0  0  0  0  0  0  0  0  0  0
    4.1042   -7.7125    0.0000 C   0  0  0  0  0  0  0  0  0  0  0  0
    6.6167   -2.6167    0.0000 C   0  0  0  0  0  0  0  0  0  0  0  0
  2  1  1  0
  3  1  1  0
  4  3  1  0
  5  2  1  0
  2  6  1  1
  3  7  1  1
  8  4  1  0
  9 12  1  0
 10  9  1  0
 11 10  2  0
 12  7  1  0
 13  1  1  0
  4 14  1  0
  1 15  1  1
  9 16  1  0
 17 18  1  0
 18 13  1  0
  4 19  1  6
 20  5  1  0
 21  5  1  0
  9 22  1  6
 17  5  1  0
  6  8  1  0
M  END
>  <ID>  (2044) 


>  <MOLENAME>  (2044) 
SCLAREOL

>  <therap>  (2044) 
antineoplastic, apoptosis inducer

>  <ref>  (2044) 
J Chem Soc 1960:4613; Phytochemistry 19:71 (1980); 36:971 (1994); Leukemia Res 23:217 (1999); Chem Phys Lipids 133:125 (2005); Apoptosis 12:685 (2007)

>  <cas#>  (2044) 
515-03-7

>  <source>  (2044) 
Salvia scleria

>  <status>  (2044) 
experimental

>  <tradename>  (2044) 
nan

>  <SMILES>  (2044) 
C=C[C@](C)(O)CC[C@H]1[C@@](C)(O)CC[C@H]2C(C)(C)CCC[C@@]21C

>  <standardized_failed>  (2044) 
False

$$$$

     RDKit          2D

 21 23  0  0  0  0  0  0  0  0999 V2000
    5.0417   -4.0042    0.0000 C   0  0  0  0  0  0  0  0  0  0  0  0
    5.7542   -4.4167    0.0000 C   0  0  0  0  0  0  0  0  0  0  0  0
    5.0417   -3.1792    0.0000 C   0  0  0  0  0  0  0  0  0  0  0  0
    5.7542   -2.7667    0.0000 O   0  0  0  0  0  0  0  0  0  0  0  0
    4.3292   -4.4167    0.0000 C   0  0  0  0  0  0  0  0  0  0  0  0
    6.4667   -4.0042    0.0000 C   0  0  0  0  0  0  0  0  0  0  0  0
    6.4667   -3.1792    0.0000 C   0  0  0  0  0  0  0  0  0  0  0  0
    4.3292   -2.7667    0.0000 C   0  0  0  0  0  0  0  0  0  0  0  0
    3.6125   -4.0042    0.0000 C   0  0  0  0  0  0  0  0  0  0  0  0
    3.6125   -3.1792    0.0000 C   0  0  0  0  0  0  0  0  0  0  0  0
    5.7542   -5.2417    0.0000 O   0  0  0  0  0  0  0  0  0  0  0  0
    7.1792   -2.7667    0.0000 C   0  0  0  0  0  0  0  0  0  0  0  0
    4.3292   -5.2417    0.0000 O   0  0  0  0  0  0  0  0  0  0  0  0
    2.8917   -2.7542    0.0000 O   0  0  0  0  0  0  0  0  0  0  0  0
    7.1792   -1.9375    0.0000 C   0  0  0  0  0  0  0  0  0  0  0  0
    7.8917   -3.1792    0.0000 C   0  0  0  0  0  0  0  0  0  0  0  0
    3.6125   -5.6542    0.0000 C   0  0  0  0  0  0  0  0  0  0  0  0
    2.8917   -1.9292    0.0000 C   0  0  0  0  0  0  0  0  0  0  0  0
    7.8917   -1.5250    0.0000 C   0  0  0  0  0  0  0  0  0  0  0  0
    8.6125   -2.7667    0.0000 C   0  0  0  0  0  0  0  0  0  0  0  0
    8.6125   -1.9375    0.0000 C   0  0  0  0  0  0  0  0  0  0  0  0
  2  1  1  0
  3  1  2  0
  4  3  1  0
  5  1  1  0
  6  2  1  0
  7  4  1  0
  8  3  1  0
  9  5  2  0
 10  9  1  0
 11  2  2  0
 12  7  1  0
 13  5  1  0
 14 10  1  0
 15 12  2  0
 16 12  1  0
 17 13  1  0
 18 14  1  0
 19 15  1  0
 20 16  2  0
 21 20  1  0
 10  8  2  0
  7  6  1  0
 21 19  2  0
M  END
>  <ID>  (2045) 


>  <MOLENAME>  (2045) 
ALPINETIN METHYL ETHER

>  <therap>  (2045) 
nan

>  <ref>  (2045) 
nan

>  <cas#>  (2045) 
36052-66-1

>  <source>  (2045) 
Eucalyptus spp

>  <status>  (2045) 
undetermined activity

>  <tradename>  (2045) 
nan

>  <SMILES>  (2045) 
COc1cc2c(C(=O)CC(c3ccccc3)O2)c(OC)c1

>  <standardized_failed>  (2045) 
False

$$$$

     RDKit          2D

 10  9  0  0  0  0  0  0  0  0999 V2000
    4.7167   -1.7917    0.0000 C   0  0  0  0  0  0  0  0  0  0  0  0
    4.7125   -0.9667    0.0000 O   0  0  0  0  0  0  0  0  0  0  0  0
    4.0042   -2.2042    0.0000 C   0  0  0  0  0  0  0  0  0  0  0  0
    5.4292   -2.2042    0.0000 O   0  0  0  0  0  0  0  0  0  0  0  0
    4.0042   -3.0292    0.0000 N   0  0  0  0  0  0  0  0  0  0  0  0
    1.8667   -1.8042    0.0000 S   0  0  0  0  0  0  0  0  0  0  0  0
    3.2917   -1.8000    0.0000 C   0  0  0  0  0  0  0  0  0  0  0  0
    2.5792   -2.2125    0.0000 C   0  0  0  0  0  0  0  0  0  0  0  0
    1.1542   -2.2167    0.0000 C   0  0  0  0  0  0  0  0  0  0  0  0
    0.4375   -1.8042    0.0000 C   0  0  0  0  0  0  0  0  0  0  0  0
  2  1  2  0
  3  1  1  0
  4  1  1  0
  5  3  1  0
  6  8  1  0
  7  3  1  0
  8  7  1  0
  9  6  1  0
 10  9  1  0
M  END
>  <ID>  (2046) 


>  <MOLENAME>  (2046) 
ETHIONINE

>  <therap>  (2046) 
antineoplastic; inhibitor DNA methylation

>  <ref>  (2046) 
J Org Chem 16:749 (1971); Adv Can Res 7:383 (1963)

>  <cas#>  (2046) 
67-21-0

>  <source>  (2046) 
synthetic

>  <status>  (2046) 
experimental

>  <tradename>  (2046) 
nan

>  <SMILES>  (2046) 
CCSCCC(N)C(=O)O

>  <standardized_failed>  (2046) 
False

$$$$

     RDKit          2D

 21 23  0  0  0  0  0  0  0  0999 V2000
    6.0875   -3.3167    0.0000 C   0  0  0  0  0  0  0  0  0  0  0  0
    6.0875   -4.1417    0.0000 C   0  0  0  0  0  0  0  0  0  0  0  0
    4.6667   -3.3125    0.0000 C   0  0  0  0  0  0  0  0  0  0  0  0
    5.3750   -2.9042    0.0000 O   0  0  0  0  0  0  0  0  0  0  0  0
    5.3667   -4.5500    0.0000 C   0  0  0  0  0  0  0  0  0  0  0  0
    4.6625   -4.1292    0.0000 C   0  0  0  0  0  0  0  0  0  0  0  0
    6.8000   -2.9042    0.0000 C   0  0  0  0  0  0  0  0  0  0  0  0
    3.9542   -2.9042    0.0000 C   0  0  0  0  0  0  0  0  0  0  0  0
    3.9500   -4.5500    0.0000 C   0  0  0  0  0  0  0  0  0  0  0  0
    5.3667   -5.3750    0.0000 O   0  0  0  0  0  0  0  0  0  0  0  0
    7.5125   -3.3167    0.0000 C   0  0  0  0  0  0  0  0  0  0  0  0
    3.2417   -3.3125    0.0000 C   0  0  0  0  0  0  0  0  0  0  0  0
    3.2417   -4.1292    0.0000 C   0  0  0  0  0  0  0  0  0  0  0  0
    8.2292   -2.9042    0.0000 C   0  0  0  0  0  0  0  0  0  0  0  0
    2.5292   -2.8917    0.0000 O   0  0  0  0  0  0  0  0  0  0  0  0
    8.9417   -3.3167    0.0000 O   0  0  0  0  0  0  0  0  0  0  0  0
    6.8000   -2.0792    0.0000 C   0  0  0  0  0  0  0  0  0  0  0  0
    7.5042   -1.6667    0.0000 C   0  0  0  0  0  0  0  0  0  0  0  0
    8.2292   -2.0792    0.0000 C   0  0  0  0  0  0  0  0  0  0  0  0
    2.5375   -2.0667    0.0000 C   0  0  0  0  0  0  0  0  0  0  0  0
    9.6542   -2.9042    0.0000 C   0  0  0  0  0  0  0  0  0  0  0  0
  2  1  2  0
  3  4  1  0
  4  1  1  0
  5  2  1  0
  6  3  2  0
  7  1  1  0
  8  3  1  0
  9  6  1  0
 10  5  2  0
 11  7  2  0
 12  8  2  0
 13 12  1  0
 14 11  1  0
 15 12  1  0
 16 14  1  0
 17  7  1  0
 18 17  2  0
 19 18  1  0
 20 15  1  0
 21 16  1  0
  5  6  1  0
 14 19  2  0
 13  9  2  0
M  END
>  <ID>  (2047) 


>  <MOLENAME>  (2047) 
7.3'-DIMETHOXYFLAVONE

>  <therap>  (2047) 
nan

>  <ref>  (2047) 
nan

>  <cas#>  (2047) 
nan

>  <source>  (2047) 
analog

>  <status>  (2047) 
undetermined activity

>  <tradename>  (2047) 
nan

>  <SMILES>  (2047) 
COc1cccc(-c2cc(=O)c3c(cc(OC)cc3)o2)c1

>  <standardized_failed>  (2047) 
False

$$$$

     RDKit          2D

 20 22  0  0  0  0  0  0  0  0999 V2000
    3.7917   -1.0625    0.0000 C   0  0  0  0  0  0  0  0  0  0  0  0
    3.1375   -1.4375    0.0000 C   0  0  0  0  0  0  0  0  0  0  0  0
    2.4792   -1.0625    0.0000 C   0  0  0  0  0  0  0  0  0  0  0  0
    3.7917   -0.3042    0.0000 C   0  0  0  0  0  0  0  0  0  0  0  0
    2.4792   -0.3042    0.0000 C   0  0  0  0  0  0  0  0  0  0  0  0
    3.1375    0.0708    0.0000 O   0  0  0  0  0  0  0  0  0  0  0  0
    4.4417   -1.4375    0.0000 C   0  0  0  0  0  0  0  0  0  0  0  0
    1.8292   -1.4375    0.0000 C   0  0  0  0  0  0  0  0  0  0  0  0
    1.8292    0.0708    0.0000 C   0  0  0  0  0  0  0  0  0  0  0  0
    3.1375   -2.1875    0.0000 O   0  0  0  0  0  0  0  0  0  0  0  0
    5.0917   -1.0625    0.0000 C   0  0  0  0  0  0  0  0  0  0  0  0
    1.1792   -0.3042    0.0000 C   0  0  0  0  0  0  0  0  0  0  0  0
    1.1792   -1.0625    0.0000 C   0  0  0  0  0  0  0  0  0  0  0  0
    5.0917   -0.3125    0.0000 O   0  0  0  0  0  0  0  0  0  0  0  0
    0.5292    0.0708    0.0000 O   0  0  0  0  0  0  0  0  0  0  0  0
    4.4417   -2.1875    0.0000 C   0  0  0  0  0  0  0  0  0  0  0  0
    5.7375   -1.4375    0.0000 C   0  0  0  0  0  0  0  0  0  0  0  0
    5.7375    0.0625    0.0000 C   0  0  0  0  0  0  0  0  0  0  0  0
    5.0917   -2.5625    0.0000 C   0  0  0  0  0  0  0  0  0  0  0  0
    5.7375   -2.1875    0.0000 C   0  0  0  0  0  0  0  0  0  0  0  0
  2  1  1  0
  3  2  1  0
  4  1  2  0
  5  6  1  0
  6  4  1  0
  7  1  1  0
  8  3  2  0
  9  5  2  0
 10  2  2  0
 11  7  2  0
 12  9  1  0
 13  8  1  0
 14 11  1  0
 15 12  1  0
 16  7  1  0
 17 11  1  0
 18 14  1  0
 19 16  2  0
 20 19  1  0
  3  5  1  0
 20 17  2  0
 12 13  2  0
M  END
>  <ID>  (2048) 


>  <MOLENAME>  (2048) 
7-HYDROXY-2'-METHOXYISOFLAVONE

>  <therap>  (2048) 
nan

>  <ref>  (2048) 
nan

>  <cas#>  (2048) 
nan

>  <source>  (2048) 
synthetic

>  <status>  (2048) 
undetermined activity

>  <tradename>  (2048) 
nan

>  <SMILES>  (2048) 
COc1c(-c2coc3cc(O)ccc3c2=O)cccc1

>  <standardized_failed>  (2048) 
False

$$$$

     RDKit          2D

 10  7  0  0  0  0  0  0  0  0999 V2000
    2.4417   -0.1667    0.0000 S   0  0  0  0  0  0  0  0  0  0  0  0
    3.1542   -0.5667    0.0000 S   0  0  0  0  0  0  0  0  0  0  0  0
    1.7292   -0.5792    0.0000 C   0  0  0  0  0  0  0  0  0  0  0  0
    3.8667   -0.1542    0.0000 C   0  0  0  0  0  0  0  0  0  0  0  0
    6.6292   -0.2042    0.0000 Cl  0  0  0  0  0  0  0  0  0  0  0  0
   -1.0083   -0.4167    0.0000 Cl  0  0  0  0  0  0  0  0  0  0  0  0
    0.3042   -0.5792    0.0000 N   0  0  0  0  0  0  0  0  0  0  0  0
    5.2917   -0.1542    0.0000 N   0  0  0  0  0  0  0  0  0  0  0  0
    4.5792   -0.5667    0.0000 C   0  0  0  0  0  0  0  0  0  0  0  0
    1.0167   -0.1667    0.0000 C   0  0  0  0  0  0  0  0  0  0  0  0
  2  1  1  0
  3  1  1  0
  4  2  1  0
  7 10  1  0
  8  9  1  0
  9  4  1  0
 10  3  1  0
M  END
>  <ID>  (2049) 


>  <MOLENAME>  (2049) 
CYSTAMINE DIHYDROCHLORIDE

>  <therap>  (2049) 
hepatoprotectant, radioprotectant

>  <ref>  (2049) 
nan

>  <cas#>  (2049) 
56-17-7

>  <source>  (2049) 
precursor to cysteamine

>  <status>  (2049) 
experimental

>  <tradename>  (2049) 
nan

>  <SMILES>  (2049) 
NCCSSCCN

>  <standardized_failed>  (2049) 
False

$$$$

     RDKit          2D

 22 22  0  0  0  0  0  0  0  0999 V2000
    6.3917   -2.8542    0.0000 C   0  0  0  0  0  0  0  0  0  0  0  0
    5.6000   -3.0750    0.0000 O   0  0  0  0  0  0  0  0  0  0  0  0
   -0.9208    0.3625    0.0000 C   0  0  0  0  0  0  0  0  0  0  0  0
   -1.7458    0.3625    0.0000 C   0  0  0  0  0  0  0  0  0  0  0  0
    6.9792   -3.4375    0.0000 O   0  0  0  0  0  0  0  0  0  0  0  0
   -0.6625    1.1500    0.0000 C   0  0  0  0  0  0  0  0  0  0  0  0
    6.6042   -2.0542    0.0000 C   0  0  0  0  0  0  0  0  0  0  0  0
   -1.9958    1.1500    0.0000 C   0  0  0  0  0  0  0  0  0  0  0  0
    6.7667   -4.2292    0.0000 C   0  0  0  0  0  0  0  0  0  0  0  0
    0.1292    1.3625    0.0000 C   0  0  0  0  0  0  0  0  0  0  0  0
   -1.3333    1.6375    0.0000 C   0  0  0  0  0  0  0  0  0  0  0  0
    6.0167   -1.4750    0.0000 C   0  0  0  0  0  0  0  0  0  0  0  0
    0.7167    0.7875    0.0000 C   0  0  0  0  0  0  0  0  0  0  0  0
    5.6500   -0.0917    0.0000 C   0  0  0  0  0  0  0  0  0  0  0  0
    6.2292   -0.6792    0.0000 C   0  0  0  0  0  0  0  0  0  0  0  0
    1.5125    1.0000    0.0000 C   0  0  0  0  0  0  0  0  0  0  0  0
    2.0917    0.4208    0.0000 C   0  0  0  0  0  0  0  0  0  0  0  0
    2.8917    0.6333    0.0000 C   0  0  0  0  0  0  0  0  0  0  0  0
    3.4750    0.0500    0.0000 C   0  0  0  0  0  0  0  0  0  0  0  0
    4.2667    0.2625    0.0000 C   0  0  0  0  0  0  0  0  0  0  0  0
    4.8542   -0.3125    0.0000 C   0  0  0  0  0  0  0  0  0  0  0  0
    7.3542   -4.8125    0.0000 C   0  0  0  0  0  0  0  0  0  0  0  0
  2  1  2  0
  3  6  1  0
  4  3  2  0
  5  1  1  0
  6 10  1  0
  7  1  1  0
  8 11  1  0
  9  5  1  0
 10 13  1  0
 11  6  1  0
 12  7  1  0
 13 16  1  0
 14 15  1  0
 15 12  1  0
 16 17  1  0
 17 18  1  0
 18 19  1  0
 19 20  1  0
 20 21  1  0
 21 14  1  0
 22  9  1  0
  8  4  1  0
M  END
>  <ID>  (2050) 


>  <MOLENAME>  (2050) 
CHAULMOOGRIC ACID. ETHYL ESTER

>  <therap>  (2050) 
antilepretic

>  <ref>  (2050) 
nan

>  <cas#>  (2050) 
623-32-5

>  <source>  (2050) 
semisynthetic

>  <status>  (2050) 
experimental

>  <tradename>  (2050) 
nan

>  <SMILES>  (2050) 
CCOC(=O)CCCCCCCCCCCCC1C=CCC1

>  <standardized_failed>  (2050) 
False

$$$$

     RDKit          2D

  9  9  0  0  0  0  0  0  0  0999 V2000
    5.7042   -4.7917    0.0000 C   0  0  0  0  0  0  0  0  0  0  0  0
    5.2667   -4.1792    0.0000 C   0  0  0  0  0  0  0  0  0  0  0  0
    6.4542   -4.7250    0.0000 O   0  0  0  0  0  0  0  0  0  0  0  0
    4.9542   -4.8625    0.0000 N   0  0  0  0  0  0  0  0  0  0  0  0
    5.3917   -5.4750    0.0000 O   0  0  0  0  0  0  0  0  0  0  0  0
    4.6792   -3.7417    0.0000 C   0  0  0  0  0  0  0  0  0  0  0  0
    5.8792   -3.7417    0.0000 C   0  0  0  0  0  0  0  0  0  0  0  0
    4.9042   -3.0292    0.0000 C   0  0  0  0  0  0  0  0  0  0  0  0
    5.6542   -3.0292    0.0000 C   0  0  0  0  0  0  0  0  0  0  0  0
  2  1  1  0
  3  1  2  0
  2  4  1  0
  5  1  1  0
  6  2  1  0
  7  2  1  0
  8  6  1  0
  9  7  1  0
  8  9  1  0
M  END
>  <ID>  (2051) 


>  <MOLENAME>  (2051) 
CYCLOLEUCINE

>  <therap>  (2051) 
NMDA receptor antagonist (gly)

>  <ref>  (2051) 
nan

>  <cas#>  (2051) 
52-52-8

>  <source>  (2051) 
synthetic

>  <status>  (2051) 
experimental

>  <tradename>  (2051) 
nan

>  <SMILES>  (2051) 
NC1(C(=O)O)CCCC1

>  <standardized_failed>  (2051) 
False

$$$$

     RDKit          2D

  6  4  0  0  0  0  0  0  0  0999 V2000
    2.7792    0.2583    0.0000 C   0  0  0  0  0  0  0  0  0  0  0  0
    3.4917   -0.1542    0.0000 O   0  0  0  0  0  0  0  0  0  0  0  0
    2.7792    1.0833    0.0000 O   0  0  0  0  0  0  0  0  0  0  0  0
    1.3542    0.2583    0.0000 S   0  0  0  0  0  0  0  0  0  0  0  0
    4.6167   -0.1875    0.0000 Na  0  0  0  0  0 15  0  0  0  0  0  0
    2.0667   -0.1542    0.0000 C   0  0  0  0  0  0  0  0  0  0  0  0
  2  1  1  0
  3  1  2  0
  4  6  1  0
  6  1  1  0
M  CHG  2   2  -1   5   1
M  END
>  <ID>  (2052) 


>  <MOLENAME>  (2052) 
SODIUM THIOGLYCOLATE

>  <therap>  (2052) 
dipilatory, irritant

>  <ref>  (2052) 
nan

>  <cas#>  (2052) 
367-51-1

>  <source>  (2052) 
synthetic

>  <status>  (2052) 
experimental

>  <tradename>  (2052) 
nan

>  <SMILES>  (2052) 
O=C(O)CS

>  <standardized_failed>  (2052) 
False

$$$$

     RDKit          2D

 13 12  0  0  0  0  0  0  0  0999 V2000
    2.3417   -0.7917    0.0000 C   0  0  0  0  0  0  0  0  0  0  0  0
    1.6292   -0.3875    0.0000 C   0  0  0  0  0  0  0  0  0  0  0  0
    3.0542   -0.3792    0.0000 O   0  0  0  0  0  0  0  0  0  0  0  0
    2.3417   -1.6167    0.0000 O   0  0  0  0  0  0  0  0  0  0  0  0
    1.6292    0.4375    0.0000 C   0  0  0  0  0  0  0  0  0  0  0  0
    4.7375   -0.5000    0.0000 Na  0  0  0  0  0 15  0  0  0  0  0  0
    0.9167   -0.8000    0.0000 C   0  0  0  0  0  0  0  0  0  0  0  0
    2.3417    0.8500    0.0000 C   0  0  0  0  0  0  0  0  0  0  0  0
    0.9125    0.8458    0.0000 C   0  0  0  0  0  0  0  0  0  0  0  0
    0.2042   -0.3917    0.0000 C   0  0  0  0  0  0  0  0  0  0  0  0
    0.9042    1.6708    0.0000 C   0  0  0  0  0  0  0  0  0  0  0  0
    2.3417    1.6750    0.0000 C   0  0  0  0  0  0  0  0  0  0  0  0
    1.6250    2.0875    0.0000 C   0  0  0  0  0  0  0  0  0  0  0  0
  2  1  1  0
  3  1  1  0
  4  1  2  0
  5  2  1  0
  7  2  1  0
  8  5  2  0
  9  5  1  0
 10  7  1  0
 11  9  2  0
 12  8  1  0
 13 12  2  0
 11 13  1  0
M  CHG  2   3  -1   6   1
M  END
>  <ID>  (2053) 


>  <MOLENAME>  (2053) 
PHENYLBUTYRATE SODIUM 

>  <therap>  (2053) 
antihyperlipidemic

>  <ref>  (2053) 
nan

>  <cas#>  (2053) 
90-27-7 (phenylbutyric acid)

>  <source>  (2053) 
synthetic; R-757, Th-22

>  <status>  (2053) 
experimental

>  <tradename>  (2053) 
nan

>  <SMILES>  (2053) 
CCC(C(=O)O)c1ccccc1

>  <standardized_failed>  (2053) 
False

$$$$

     RDKit          2D

 12 12  0  0  0  0  0  0  0  0999 V2000
    4.9500   -1.5542    0.0000 C   0  0  0  0  0  0  0  0  0  0  0  0
    4.9500   -2.3875    0.0000 C   0  0  0  0  0  0  0  0  0  0  0  0
    5.6625   -1.1417    0.0000 C   0  0  0  0  0  0  0  0  0  0  0  0
    5.6667   -2.8000    0.0000 C   0  0  0  0  0  0  0  0  0  0  0  0
    4.2292   -2.8000    0.0000 N   0  0  0  0  0  0  0  0  0  0  0  0
    5.6542   -0.3167    0.0000 O   0  0  0  0  0  0  0  0  0  0  0  0
    5.6667   -3.6250    0.0000 O   0  0  0  0  0  0  0  0  0  0  0  0
    6.3792   -1.5500    0.0000 O   0  0  0  0  0  0  0  0  0  0  0  0
    6.3792   -2.3792    0.0000 O   0  0  0  0  0  0  0  0  0  0  0  0
    4.2292   -1.1417    0.0000 C   0  0  0  0  0  0  0  0  0  0  0  0
    3.5167   -2.3875    0.0000 C   0  0  0  0  0  0  0  0  0  0  0  0
    3.5167   -1.5625    0.0000 C   0  0  0  0  0  0  0  0  0  0  0  0
  2  1  2  0
  3  1  1  0
  4  2  1  0
  5  2  1  0
  6  3  2  0
  7  4  2  0
  8  3  1  0
  9  4  1  0
 10  1  1  0
 11 12  1  0
 12 10  2  0
 11  5  2  0
M  END
>  <ID>  (2054) 


>  <MOLENAME>  (2054) 
QUINOLINIC ACID

>  <therap>  (2054) 
differentiates between cerebral and forebrain NMDA receptors

>  <ref>  (2054) 
nan

>  <cas#>  (2054) 
nan

>  <source>  (2054) 
synthetic

>  <status>  (2054) 
experimental

>  <tradename>  (2054) 
nan

>  <SMILES>  (2054) 
O=C(O)c1c(C(=O)O)nccc1

>  <standardized_failed>  (2054) 
False

$$$$

     RDKit          2D

 14 14  0  0  0  0  0  0  0  0999 V2000
    1.0750   -3.1625    0.0000 C   0  0  0  0  0  0  0  0  0  0  0  0
    0.3625   -3.5792    0.0000 C   0  0  0  0  0  0  0  0  0  0  0  0
    1.0792   -2.3375    0.0000 C   0  0  0  0  0  0  0  0  0  0  0  0
   -0.3500   -3.1667    0.0000 C   0  0  0  0  0  0  0  0  0  0  0  0
    0.3625   -1.9250    0.0000 C   0  0  0  0  0  0  0  0  0  0  0  0
   -0.3500   -2.3375    0.0000 C   0  0  0  0  0  0  0  0  0  0  0  0
    2.5083   -3.1667    0.0000 N   0  0  0  0  0  0  0  0  0  0  0  0
    1.7917   -3.5792    0.0000 C   0  0  0  0  0  0  0  0  0  0  0  0
   -1.0667   -3.5792    0.0000 O   0  0  0  0  0  0  0  0  0  0  0  0
   -1.0625   -1.9292    0.0000 O   0  0  0  0  0  0  0  0  0  0  0  0
    2.5083   -2.3375    0.0000 C   0  0  0  0  0  0  0  0  0  0  0  0
    3.6750   -2.7750    0.0000 Br  0  0  0  0  0  0  0  0  0  0  0  0
    1.7917   -1.9208    0.0000 C   0  0  0  0  0  0  0  0  0  0  0  0
    1.7875   -4.4042    0.0000 C   0  0  0  0  0  0  0  0  0  0  0  0
  2  1  2  0
  3  1  1  0
  4  2  1  0
  5  3  2  0
  6  5  1  0
  7  8  1  0
  8  1  1  0
  9  4  1  0
 10  6  1  0
 11 13  1  0
 13  3  1  0
 14  8  1  0
 11  7  1  0
  4  6  2  0
M  END
>  <ID>  (2055) 


>  <MOLENAME>  (2055) 
SALSOLINOL HYDROBROMIDE

>  <therap>  (2055) 
prolactin-releasing factor 

>  <ref>  (2055) 
Neurosignals 12:315 (2003); Physiol Res 55:353 (2006)

>  <cas#>  (2055) 
38221-21-5

>  <source>  (2055) 
dopamine derivative

>  <status>  (2055) 
experimental

>  <tradename>  (2055) 
nan

>  <SMILES>  (2055) 
CC1NCCc2cc(O)c(O)cc21

>  <standardized_failed>  (2055) 
False

$$$$

     RDKit          2D

 16 15  0  0  0  0  0  0  0  0999 V2000
    5.2292   -4.7750    0.0000 C   0  0  0  0  0  0  0  0  0  0  0  0
    5.3667   -3.9625    0.0000 N   0  0  0  0  0  0  0  0  0  0  0  0
    6.7750   -4.2042    0.0000 C   0  0  0  0  0  0  0  0  0  0  0  0
    4.4542   -5.0542    0.0000 C   0  0  0  0  0  0  0  0  0  0  0  0
    6.1417   -3.6792    0.0000 C   0  0  0  0  0  0  0  0  0  0  0  0
    7.1792   -1.7667    0.0000 C   0  0  0  0  0  0  0  0  0  0  0  0
    5.8625   -5.3042    0.0000 O   0  0  0  0  0  0  0  0  0  0  0  0
    7.5417   -3.9167    0.0000 O   0  0  0  0  0  0  0  0  0  0  0  0
    7.9542   -1.4750    0.0000 O   0  0  0  0  0  0  0  0  0  0  0  0
    6.2792   -2.8667    0.0000 C   0  0  0  0  0  0  0  0  0  0  0  0
    3.8250   -4.5292    0.0000 N   0  0  0  0  0  0  0  0  0  0  0  0
    7.0500   -2.5792    0.0000 C   0  0  0  0  0  0  0  0  0  0  0  0
    6.5417   -1.2417    0.0000 N   0  0  0  0  0  0  0  0  0  0  0  0
    6.6375   -5.0167    0.0000 O   0  0  0  0  0  0  0  0  0  0  0  0
    4.3250   -5.8667    0.0000 C   0  0  0  0  0  0  0  0  0  0  0  0
    4.9542   -6.3875    0.0000 O   0  0  0  0  0  0  0  0  0  0  0  0
  2  1  1  0
  3  5  1  0
  4  1  1  0
  5  2  1  0
  6 12  1  0
  7  1  2  0
  8  3  2  0
  9  6  2  0
  5 10  1  1
  4 11  1  6
 12 10  1  0
 13  6  1  0
 14  3  1  0
  4 15  1  0
 16 15  1  0
M  END
>  <ID>  (2056) 


>  <MOLENAME>  (2056) 
L-SERYL-L-GLUTAMINE

>  <therap>  (2056) 
dipeptide

>  <ref>  (2056) 
J Biol Chem 146:463 (1942)

>  <cas#>  (2056) 
94421-66-6

>  <source>  (2056) 
synthetic

>  <status>  (2056) 
undetermined activity

>  <tradename>  (2056) 
nan

>  <SMILES>  (2056) 
NC(=O)CC[C@H](NC(=O)[C@@H](N)CO)C(=O)O

>  <standardized_failed>  (2056) 
False

$$$$

     RDKit          2D

 14 14  0  0  0  0  0  0  0  0999 V2000
    3.1542   -0.1542    0.0000 C   0  0  0  0  0  0  0  0  0  0  0  0
    2.4417    0.2583    0.0000 C   0  0  0  0  0  0  0  0  0  0  0  0
    3.8667    0.2583    0.0000 C   0  0  0  0  0  0  0  0  0  0  0  0
    3.1542   -0.9792    0.0000 C   0  0  0  0  0  0  0  0  0  0  0  0
    3.1542   -1.8042    0.0000 N   0  0  0  0  0  0  0  0  0  0  0  0
    1.7292   -0.1542    0.0000 C   0  0  0  0  0  0  0  0  0  0  0  0
    3.8667    1.0833    0.0000 O   0  0  0  0  0  0  0  0  0  0  0  0
    1.0167    0.2583    0.0000 C   0  0  0  0  0  0  0  0  0  0  0  0
    4.5792   -0.1542    0.0000 O   0  0  0  0  0  0  0  0  0  0  0  0
    0.3042   -0.1542    0.0000 C   0  0  0  0  0  0  0  0  0  0  0  0
   -0.4083    0.2583    0.0000 O   0  0  0  0  0  0  0  0  0  0  0  0
    1.0167   -1.3917    0.0000 C   0  0  0  0  0  0  0  0  0  0  0  0
    1.7292   -0.9792    0.0000 C   0  0  0  0  0  0  0  0  0  0  0  0
    0.3042   -0.9792    0.0000 C   0  0  0  0  0  0  0  0  0  0  0  0
  2  1  2  0
  3  1  1  0
  4  1  1  0
  5  4  3  0
  6  2  1  0
  7  3  2  0
  8  6  2  0
  9  3  1  0
 10  8  1  0
 11 10  1  0
 12 13  2  0
 13  6  1  0
 14 12  1  0
 14 10  2  0
M  END
>  <ID>  (2057) 


>  <MOLENAME>  (2057) 
alpha-CYANO-3-HYDROXYCINNAMIC ACID

>  <therap>  (2057) 
inhibit mitochondrial pyruvate transport

>  <ref>  (2057) 
nan

>  <cas#>  (2057) 
nan

>  <source>  (2057) 
synthetic

>  <status>  (2057) 
experimental

>  <tradename>  (2057) 
nan

>  <SMILES>  (2057) 
N#C/C(=C\c1cc(O)ccc1)C(=O)O

>  <standardized_failed>  (2057) 
False

$$$$

     RDKit          2D

 26 28  0  0  0  0  0  0  0  0999 V2000
    1.5542   -4.6500    0.0000 C   0  0  0  0  0  0  0  0  0  0  0  0
    2.9792   -4.6417    0.0000 C   0  0  0  0  0  0  0  0  0  0  0  0
    1.5542   -5.4750    0.0000 C   0  0  0  0  0  0  0  0  0  0  0  0
    2.2542   -4.2292    0.0000 O   0  0  0  0  0  0  0  0  0  0  0  0
    2.2667   -5.8875    0.0000 C   0  0  0  0  0  0  0  0  0  0  0  0
    2.9792   -5.4667    0.0000 C   0  0  0  0  0  0  0  0  0  0  0  0
    0.8375   -4.2375    0.0000 C   0  0  0  0  0  0  0  0  0  0  0  0
    0.8375   -5.8917    0.0000 C   0  0  0  0  0  0  0  0  0  0  0  0
    3.6875   -4.2250    0.0000 C   0  0  0  0  0  0  0  0  0  0  0  0
    0.1250   -4.6500    0.0000 C   0  0  0  0  0  0  0  0  0  0  0  0
    0.1250   -5.4792    0.0000 C   0  0  0  0  0  0  0  0  0  0  0  0
    4.4042   -4.6375    0.0000 C   0  0  0  0  0  0  0  0  0  0  0  0
    5.1167   -4.2167    0.0000 C   0  0  0  0  0  0  0  0  0  0  0  0
    3.6792   -3.4042    0.0000 C   0  0  0  0  0  0  0  0  0  0  0  0
    2.2667   -6.7125    0.0000 O   0  0  0  0  0  0  0  0  0  0  0  0
    5.1125   -3.3917    0.0000 C   0  0  0  0  0  0  0  0  0  0  0  0
    0.8417   -6.7167    0.0000 O   0  0  0  0  0  0  0  0  0  0  0  0
    0.8292   -3.4125    0.0000 O   0  0  0  0  0  0  0  0  0  0  0  0
    4.3917   -2.9875    0.0000 C   0  0  0  0  0  0  0  0  0  0  0  0
   -0.5875   -4.2417    0.0000 O   0  0  0  0  0  0  0  0  0  0  0  0
    4.4042   -5.4625    0.0000 O   0  0  0  0  0  0  0  0  0  0  0  0
    5.8250   -2.9750    0.0000 O   0  0  0  0  0  0  0  0  0  0  0  0
    1.5500   -3.0000    0.0000 C   0  0  0  0  0  0  0  0  0  0  0  0
   -0.5875   -3.4167    0.0000 C   0  0  0  0  0  0  0  0  0  0  0  0
    5.1250   -5.8667    0.0000 C   0  0  0  0  0  0  0  0  0  0  0  0
    6.5417   -3.3792    0.0000 C   0  0  0  0  0  0  0  0  0  0  0  0
  2  4  1  0
  3  1  2  0
  4  1  1  0
  5  3  1  0
  6  2  2  0
  7  1  1  0
  8  3  1  0
  9  2  1  0
 10  7  2  0
 11 10  1  0
 12  9  2  0
 13 12  1  0
 14  9  1  0
 15  5  2  0
 16 19  1  0
 17  8  1  0
 18  7  1  0
 19 14  2  0
 20 10  1  0
 21 12  1  0
 22 16  1  0
 23 18  1  0
 24 20  1  0
 25 21  1  0
 26 22  1  0
 11  8  2  0
  6  5  1  0
 16 13  2  0
M  END
>  <ID>  (2058) 


>  <MOLENAME>  (2058) 
5-HYDROXY-2'.4'.7.8-TETRAMETHOXYFLAVONE

>  <therap>  (2058) 
nan

>  <ref>  (2058) 
Chem Pharm Bull 33:3982 (1985): Phytochemistry 28:1778 (1989)

>  <cas#>  (2058) 
123316-61-0

>  <source>  (2058) 
Citrus spp, Limnophilia rugosa

>  <status>  (2058) 
undetermined activity

>  <tradename>  (2058) 
nan

>  <SMILES>  (2058) 
COc1cc(OC)c(-c2cc(=O)c3c(o2)c(OC)c(OC)cc3O)cc1

>  <standardized_failed>  (2058) 
False

$$$$

     RDKit          2D

 18 19  0  0  0  0  0  0  0  0999 V2000
    5.1875   -2.4667    0.0000 C   0  0  0  0  0  0  0  0  0  0  0  0
    6.6292   -3.6167    0.0000 C   0  0  0  0  0  0  0  0  0  0  0  0
    5.8292   -1.9542    0.0000 C   0  0  0  0  0  0  0  0  0  0  0  0
    5.1875   -3.2917    0.0000 C   0  0  0  0  0  0  0  0  0  0  0  0
    6.6292   -2.1375    0.0000 C   0  0  0  0  0  0  0  0  0  0  0  0
    6.9875   -2.8750    0.0000 C   0  0  0  0  0  0  0  0  0  0  0  0
    5.8292   -3.8042    0.0000 C   0  0  0  0  0  0  0  0  0  0  0  0
    4.4750   -2.0542    0.0000 C   0  0  0  0  0  0  0  0  0  0  0  0
    7.1417   -4.2792    0.0000 C   0  0  0  0  0  0  0  0  0  0  0  0
    3.7542   -2.4667    0.0000 C   0  0  0  0  0  0  0  0  0  0  0  0
    4.4750   -3.7042    0.0000 C   0  0  0  0  0  0  0  0  0  0  0  0
    5.6417   -1.1417    0.0000 O   0  0  0  0  0  0  0  0  0  0  0  0
    7.9625   -4.1625    0.0000 O   0  0  0  0  0  0  0  0  0  0  0  0
    3.7542   -3.2917    0.0000 C   0  0  0  0  0  0  0  0  0  0  0  0
    7.1417   -1.4875    0.0000 O   0  0  0  0  0  0  0  0  0  0  0  0
    4.4750   -1.2292    0.0000 O   0  0  0  0  0  0  0  0  0  0  0  0
    6.8292   -5.0417    0.0000 O   0  0  0  0  0  0  0  0  0  0  0  0
    3.0375   -2.0542    0.0000 O   0  0  0  0  0  0  0  0  0  0  0  0
  2  7  2  0
  3  1  1  0
  4  1  2  0
  5  3  1  0
  6  5  2  0
  7  4  1  0
  8  1  1  0
  9  2  1  0
 10  8  2  0
 11  4  1  0
 12  3  2  0
 13  9  2  0
 14 10  1  0
 15  5  1  0
 16  8  1  0
 17  9  1  0
 18 10  1  0
 11 14  2  0
  6  2  1  0
M  END
>  <ID>  (2059) 


>  <MOLENAME>  (2059) 
7-DESHYDROXYPYROGALLIN-4-CARBOXYLIC ACID

>  <therap>  (2059) 
nan

>  <ref>  (2059) 
nan

>  <cas#>  (2059) 
nan

>  <source>  (2059) 
synthetic

>  <status>  (2059) 
undetermined activity

>  <tradename>  (2059) 
nan

>  <SMILES>  (2059) 
O=C(O)c1cc2c(c(O)c(O)cc2)c(=O)c(O)c1

>  <standardized_failed>  (2059) 
False

$$$$

     RDKit          2D

 30 35  0  0  0  0  0  0  0  0999 V2000
    2.6125    0.0583    0.0000 C   0  0  0  0  0  0  0  0  0  0  0  0
    1.1792   -0.7875    0.0000 C   0  0  0  0  0  0  0  0  0  0  0  0
    4.6667    0.7875    0.0000 C   0  0  0  0  0  0  0  0  0  0  0  0
    2.6125   -0.7875    0.0000 C   0  0  0  0  0  0  0  0  0  0  0  0
    0.4750   -1.1917    0.0000 C   0  0  0  0  0  0  0  0  0  0  0  0
    3.4042    0.3083    0.0000 C   0  0  0  0  0  0  0  0  0  0  0  0
    1.8917   -1.1917    0.0000 C   0  0  0  0  0  0  0  0  0  0  0  0
    4.6542   -0.1125    0.0000 O   0  0  0  0  0  0  0  0  0  0  0  0
    3.8875   -0.3625    0.0000 C   0  0  0  0  0  0  0  0  0  0  0  0
    1.1792    0.0583    0.0000 C   0  0  0  0  0  0  0  0  0  0  0  0
    3.4042   -1.0417    0.0000 C   0  0  0  0  0  0  0  0  0  0  0  0
    3.9000    0.9625    0.0000 C   0  0  0  0  0  0  0  0  0  0  0  0
    1.9167    0.4708    0.0000 C   0  0  0  0  0  0  0  0  0  0  0  0
    5.3125    1.0458    0.0000 O   0  0  0  0  0  0  0  0  0  0  0  0
    0.4750   -2.0375    0.0000 C   0  0  0  0  0  0  0  0  0  0  0  0
   -0.2458   -0.7875    0.0000 C   0  0  0  0  0  0  0  0  0  0  0  0
    1.8917   -2.0375    0.0000 C   0  0  0  0  0  0  0  0  0  0  0  0
    5.2125    1.4625    0.0000 C   0  0  0  0  0  0  0  0  0  0  0  0
    1.1792   -2.4250    0.0000 C   0  0  0  0  0  0  0  0  0  0  0  0
   -0.2458   -2.4250    0.0000 C   0  0  0  0  0  0  0  0  0  0  0  0
    2.6250    0.8625    0.0000 C   0  0  0  0  0  0  0  0  0  0  0  0
    6.1750    0.7875    0.0000 C   0  0  0  0  0  0  0  0  0  0  0  0
   -0.9708   -1.1917    0.0000 C   0  0  0  0  0  0  0  0  0  0  0  0
   -0.9708   -2.0375    0.0000 C   0  0  0  0  0  0  0  0  0  0  0  0
    0.4750   -0.3625    0.0000 C   0  0  0  0  0  0  0  0  0  0  0  0
    6.0542    1.1333    0.0000 C   0  0  0  0  0  0  0  0  0  0  0  0
    6.6917    1.4500    0.0000 C   0  0  0  0  0  0  0  0  0  0  0  0
   -1.7083   -2.4542    0.0000 O   0  0  0  0  0  0  0  0  0  0  0  0
    3.6667    1.7750    0.0000 C   0  0  0  0  0  0  0  0  0  0  0  0
    7.4667    1.4625    0.0000 C   0  0  0  0  0  0  0  0  0  0  0  0
  2 10  2  0
  3 12  1  0
  4  1  1  0
  5  2  1  0
  6  1  1  0
  7  4  1  0
  8  9  1  0
  9  6  1  0
 10 13  1  0
 11  4  1  0
 12  6  1  0
 13  1  1  0
 14  3  1  0
 15  5  1  0
 16  5  1  0
 17  7  1  0
 18  3  1  0
 19 17  1  0
 20 15  1  0
 21  1  1  0
 22 14  1  0
 23 16  1  0
 24 23  1  0
 25  5  1  0
 26 18  1  0
 27 26  1  0
 24 28  1  1
 12 29  1  6
 30 27  1  0
  9 11  1  0
  2  7  1  0
  3  8  1  0
 15 19  1  0
 22 27  1  0
 20 24  1  0
M  END
>  <ID>  (2060) 


>  <MOLENAME>  (2060) 
3beta-HYDROXYISOALLOSPIROST-9(11)-ENE

>  <therap>  (2060) 
nan

>  <ref>  (2060) 
nan

>  <cas#>  (2060) 
nan

>  <source>  (2060) 
semisynthetic

>  <status>  (2060) 
undetermined activity

>  <tradename>  (2060) 
nan

>  <SMILES>  (2060) 
CC1CCC2(OC1)OC1CC3C4CCC5C[C@@H](O)CCC5(C)C4=CCC3(C)C1[C@@H]2C

>  <standardized_failed>  (2060) 
False

$$$$

     RDKit          2D

 14 14  0  0  0  0  0  0  0  0999 V2000
    2.7542   -2.0042    0.0000 C   0  0  0  0  0  0  0  0  0  0  0  0
    2.7542   -1.1750    0.0000 C   0  0  0  0  0  0  0  0  0  0  0  0
    3.4667   -2.4167    0.0000 C   0  0  0  0  0  0  0  0  0  0  0  0
    5.6042   -1.1667    0.0000 O   0  0  0  0  0  0  0  0  0  0  0  0
    4.8917   -0.7625    0.0000 C   0  0  0  0  0  0  0  0  0  0  0  0
    4.1833   -1.1750    0.0000 C   0  0  0  0  0  0  0  0  0  0  0  0
    3.4667   -0.7625    0.0000 C   0  0  0  0  0  0  0  0  0  0  0  0
    4.1833   -2.0042    0.0000 C   0  0  0  0  0  0  0  0  0  0  0  0
    2.0375   -2.4167    0.0000 O   0  0  0  0  0  0  0  0  0  0  0  0
    3.4667   -3.2417    0.0000 O   0  0  0  0  0  0  0  0  0  0  0  0
    2.0417   -0.7667    0.0000 O   0  0  0  0  0  0  0  0  0  0  0  0
    1.3250   -2.0042    0.0000 C   0  0  0  0  0  0  0  0  0  0  0  0
    2.7542   -3.6542    0.0000 C   0  0  0  0  0  0  0  0  0  0  0  0
    2.0417    0.0583    0.0000 C   0  0  0  0  0  0  0  0  0  0  0  0
  2  1  2  0
  3  1  1  0
  4  5  2  0
  5  6  1  0
  6  7  2  0
  7  2  1  0
  8  3  2  0
  9  1  1  0
 10  3  1  0
 11  2  1  0
 12  9  1  0
 13 10  1  0
 14 11  1  0
  6  8  1  0
M  END
>  <ID>  (2061) 


>  <MOLENAME>  (2061) 
3.4.5-TRIMETHOXYBENZALDEHYDE

>  <therap>  (2061) 
nan

>  <ref>  (2061) 
Syn Commun 20:2659 (1990)

>  <cas#>  (2061) 
86-81-7

>  <source>  (2061) 
Cimbopongo spp, Libanotris spp

>  <status>  (2061) 
undetermined activity

>  <tradename>  (2061) 
nan

>  <SMILES>  (2061) 
COc1cc(C=O)cc(OC)c1OC

>  <standardized_failed>  (2061) 
False

$$$$

     RDKit          2D

 15 15  0  0  0  0  0  0  0  0999 V2000
    5.4125   -3.9042    0.0000 N   0  0  0  0  0  0  0  0  0  0  0  0
    5.4125   -3.1542    0.0000 C   0  0  0  0  0  0  0  0  0  0  0  0
    5.4125   -5.4042    0.0000 N   0  0  0  0  0  0  0  0  0  0  0  0
    6.0625   -2.7792    0.0000 C   0  0  0  0  0  0  0  0  0  0  0  0
    7.7625   -3.6542    0.0000 Cl  0  0  0  0  0  0  0  0  0  0  0  0
    6.7125   -3.1542    0.0000 O   0  0  0  0  0  0  0  0  0  0  0  0
    4.7625   -4.2750    0.0000 C   0  0  0  0  0  0  0  0  0  0  0  0
    6.0625   -4.2792    0.0000 C   0  0  0  0  0  0  0  0  0  0  0  0
    6.0625   -5.0292    0.0000 C   0  0  0  0  0  0  0  0  0  0  0  0
    4.7625   -5.0250    0.0000 C   0  0  0  0  0  0  0  0  0  0  0  0
    4.7625   -2.7792    0.0000 C   0  0  0  0  0  0  0  0  0  0  0  0
    6.0625   -2.0250    0.0000 C   0  0  0  0  0  0  0  0  0  0  0  0
    6.7125   -3.9042    0.0000 C   0  0  0  0  0  0  0  0  0  0  0  0
    4.7625   -2.0250    0.0000 C   0  0  0  0  0  0  0  0  0  0  0  0
    5.4125   -1.6500    0.0000 C   0  0  0  0  0  0  0  0  0  0  0  0
  2  1  1  0
  3 10  1  0
  4  2  2  0
  6  4  1  0
  7  1  1  0
  8  1  1  0
  9  8  1  0
 10  7  1  0
 11  2  1  0
 12  4  1  0
 13  6  1  0
 14 11  2  0
 15 14  1  0
  9  3  1  0
 12 15  2  0
M  END
>  <ID>  (2062) 


>  <MOLENAME>  (2062) 
1-(2-METHOXYPHENYL)PIERAZINE HYDROCHLORIDE

>  <therap>  (2062) 
5HT1 receptor agonist

>  <ref>  (2062) 
Biochem Pharmacol 29: 833 (1980); J Med Chem 30: 1 (1987)

>  <cas#>  (2062) 
nan

>  <source>  (2062) 
synthetic

>  <status>  (2062) 
experimental

>  <tradename>  (2062) 
nan

>  <SMILES>  (2062) 
COc1c(N2CCNCC2)cccc1

>  <standardized_failed>  (2062) 
False

$$$$

     RDKit          2D

 20 19  0  0  0  0  0  0  0  0999 V2000
    4.7292   -2.9250    0.0000 N   0  0  0  0  0  0  0  0  0  0  0  0
    5.4042   -3.4042    0.0000 C   0  0  0  0  0  0  0  0  0  0  0  0
    4.0667   -3.4042    0.0000 C   0  0  0  0  0  0  0  0  0  0  0  0
    3.3000   -0.4417    0.0000 N   0  0  0  0  0  0  0  0  0  0  0  0
    4.0167   -1.6875    0.0000 C   0  0  0  0  0  0  0  0  0  0  0  0
    4.0167   -0.8542    0.0000 C   0  0  0  0  0  0  0  0  0  0  0  0
    4.3292   -4.1917    0.0000 S   0  0  0  0  0  0  0  0  0  0  0  0
    4.7292   -2.1000    0.0000 C   0  0  0  0  0  0  0  0  0  0  0  0
    5.1542   -4.1917    0.0000 C   0  0  0  0  0  0  0  0  0  0  0  0
    2.5875   -1.6875    0.0000 N   0  0  0  0  0  0  0  0  0  0  0  0
    2.5875   -0.8625    0.0000 C   0  0  0  0  0  0  0  0  0  0  0  0
    3.3000   -2.1000    0.0000 C   0  0  0  0  0  0  0  0  0  0  0  0
    5.7375   -1.4500    0.0000 Cl  0  0  0  0  0  0  0  0  0  0  0  0
    5.6375   -4.8542    0.0000 C   0  0  0  0  0  0  0  0  0  0  0  0
    4.7292   -0.4417    0.0000 O   0  0  0  0  0  0  0  0  0  0  0  0
    0.5542   -1.9292    0.0000 Cl  0  0  0  0  0  0  0  0  0  0  0  0
    6.1917   -3.1500    0.0000 C   0  0  0  0  0  0  0  0  0  0  0  0
    6.9417   -5.4375    0.0000 O   0  0  0  0  0  0  0  0  0  0  0  0
    1.8750   -0.4500    0.0000 C   0  0  0  0  0  0  0  0  0  0  0  0
    6.4542   -4.7667    0.0000 C   0  0  0  0  0  0  0  0  0  0  0  0
  2  1  1  0
  3  1  2  0
  4  6  2  0
  5  8  1  0
  6  5  1  0
  7  3  1  0
  8  1  1  0
  9  2  2  0
 10 12  1  0
 11 10  2  0
 12  5  2  0
 14  9  1  0
 15  6  1  0
 17  2  1  0
 18 20  1  0
 19 11  1  0
 20 14  1  0
  7  9  1  0
  4 11  1  0
M  CHG  2   1   1  13  -1
M  END
>  <ID>  (2063) 


>  <MOLENAME>  (2063) 
OXYTHIAMINE CHLORIDE HYDROCHLORIDE

>  <therap>  (2063) 
thiamine antagonist

>  <ref>  (2063) 
Science 110:162 (1949); Proc Soc Exp Med 72:165 (1949)

>  <cas#>  (2063) 
614-05-1

>  <source>  (2063) 
synthesis

>  <status>  (2063) 
experimental

>  <tradename>  (2063) 
nan

>  <SMILES>  (2063) 
Cc1ncc(C[n+]2csc(CCO)c2C)c(O)n1

>  <standardized_failed>  (2063) 
False

$$$$

     RDKit          2D

  9  6  0  0  0  0  0  0  0  0999 V2000
    0.9750   -1.8667    0.0000 C   0  0  0  0  0  0  0  0  0  0  0  0
    1.6875   -1.4542    0.0000 N   0  0  0  0  0  0  0  0  0  0  0  0
    0.2625   -1.4542    0.0000 S   0  0  0  0  0  0  0  0  0  0  0  0
    0.9750   -2.6917    0.0000 N   0  0  0  0  0  0  0  0  0  0  0  0
    3.2417   -1.1792    0.0000 Br  0  0  0  0  0  0  0  0  0  0  0  0
    2.5542   -2.9292    0.0000 Br  0  0  0  0  0  0  0  0  0  0  0  0
   -1.8750   -1.8667    0.0000 N   0  0  0  0  0  0  0  0  0  0  0  0
   -0.4500   -1.8667    0.0000 C   0  0  0  0  0  0  0  0  0  0  0  0
   -1.1625   -1.4542    0.0000 C   0  0  0  0  0  0  0  0  0  0  0  0
  2  1  2  0
  3  1  1  0
  4  1  1  0
  7  9  1  0
  8  3  1  0
  9  8  1  0
M  END
>  <ID>  (2064) 


>  <MOLENAME>  (2064) 
AMINOETHYLISOTHIOUREA DIHYDROBROMIDE

>  <therap>  (2064) 
NOS inhibitor

>  <ref>  (2064) 
Br J Pharmacol 114:510 (1995)

>  <cas#>  (2064) 
56-10-0

>  <source>  (2064) 
synthetic

>  <status>  (2064) 
experimental

>  <tradename>  (2064) 
nan

>  <SMILES>  (2064) 
N=C(N)SCCN

>  <standardized_failed>  (2064) 
False

$$$$

     RDKit          2D

 14 15  0  0  0  0  0  0  0  0999 V2000
   -0.2750   -0.9292    0.0000 N   0  0  0  0  0  0  0  0  0  0  0  0
    0.1417   -1.6417    0.0000 N   0  0  0  0  0  0  0  0  0  0  0  0
   -1.1000   -0.9292    0.0000 C   0  0  0  0  0  0  0  0  0  0  0  0
   -0.2708   -2.3542    0.0000 C   0  0  0  0  0  0  0  0  0  0  0  0
   -1.5083   -0.2167    0.0000 C   0  0  0  0  0  0  0  0  0  0  0  0
   -1.5083   -1.6417    0.0000 C   0  0  0  0  0  0  0  0  0  0  0  0
   -1.1000   -2.3542    0.0000 C   0  0  0  0  0  0  0  0  0  0  0  0
    0.1417   -3.0667    0.0000 C   0  0  0  0  0  0  0  0  0  0  0  0
   -2.3333   -0.2167    0.0000 C   0  0  0  0  0  0  0  0  0  0  0  0
   -0.2750   -3.7792    0.0000 C   0  0  0  0  0  0  0  0  0  0  0  0
   -1.5125   -3.0667    0.0000 C   0  0  0  0  0  0  0  0  0  0  0  0
   -2.3333   -1.6417    0.0000 C   0  0  0  0  0  0  0  0  0  0  0  0
   -1.1000   -3.7792    0.0000 C   0  0  0  0  0  0  0  0  0  0  0  0
   -2.7458   -0.9375    0.0000 C   0  0  0  0  0  0  0  0  0  0  0  0
  2  1  2  0
  3  1  1  0
  4  2  1  0
  5  3  2  0
  6  3  1  0
  7  4  2  0
  8  4  1  0
  9  5  1  0
 10  8  2  0
 11  7  1  0
 12  6  2  0
 13 10  1  0
 14 12  1  0
  9 14  2  0
 11 13  2  0
M  END
>  <ID>  (2065) 


>  <MOLENAME>  (2065) 
AZOBENZENE

>  <therap>  (2065) 
acaricide

>  <ref>  (2065) 
nan

>  <cas#>  (2065) 
103-33-3

>  <source>  (2065) 
synthetic

>  <status>  (2065) 
experimental

>  <tradename>  (2065) 
nan

>  <SMILES>  (2065) 
c1ccc(/N=N\c2ccccc2)cc1

>  <standardized_failed>  (2065) 
False

$$$$

     RDKit          2D

 12 12  0  0  0  0  0  0  0  0999 V2000
    6.4292   -4.5417    0.0000 C   0  0  0  0  0  0  0  0  0  0  0  0
    5.7250   -4.1292    0.0000 C   0  0  0  0  0  0  0  0  0  0  0  0
    6.4292   -5.3667    0.0000 O   0  0  0  0  0  0  0  0  0  0  0  0
    5.7292   -3.3042    0.0000 C   0  0  0  0  0  0  0  0  0  0  0  0
    7.1417   -4.1292    0.0000 N   0  0  0  0  0  0  0  0  0  0  0  0
    5.0042   -4.5292    0.0000 C   0  0  0  0  0  0  0  0  0  0  0  0
    6.4417   -2.8917    0.0000 C   0  0  0  0  0  0  0  0  0  0  0  0
    5.0167   -2.8875    0.0000 C   0  0  0  0  0  0  0  0  0  0  0  0
    4.2917   -4.1167    0.0000 C   0  0  0  0  0  0  0  0  0  0  0  0
    5.0250   -2.0625    0.0000 C   0  0  0  0  0  0  0  0  0  0  0  0
    6.4417   -2.0667    0.0000 C   0  0  0  0  0  0  0  0  0  0  0  0
    5.7375   -1.6542    0.0000 C   0  0  0  0  0  0  0  0  0  0  0  0
  2  1  1  0
  3  1  2  0
  4  2  1  0
  5  1  1  0
  6  2  1  0
  7  4  2  0
  8  4  1  0
  9  6  1  0
 10  8  2  0
 11  7  1  0
 12 10  1  0
 12 11  2  0
M  END
>  <ID>  (2066) 


>  <MOLENAME>  (2066) 
FENBUTYRAMIDE

>  <therap>  (2066) 
antihyperlipidemic

>  <ref>  (2066) 
nan

>  <cas#>  (2066) 
90-26-6

>  <source>  (2066) 
synthetic

>  <status>  (2066) 
experimental

>  <tradename>  (2066) 
nan

>  <SMILES>  (2066) 
CCC(C(N)=O)c1ccccc1

>  <standardized_failed>  (2066) 
False

$$$$

     RDKit          2D

 12 12  0  0  0  0  0  0  0  0999 V2000
    4.1667   -2.4000    0.0000 C   0  0  0  0  0  0  0  0  0  0  0  0
    4.8875   -2.8125    0.0000 C   0  0  0  0  0  0  0  0  0  0  0  0
    3.4542   -2.8125    0.0000 C   0  0  0  0  0  0  0  0  0  0  0  0
    5.6000   -2.3917    0.0000 C   0  0  0  0  0  0  0  0  0  0  0  0
    6.3167   -2.8042    0.0000 O   0  0  0  0  0  0  0  0  0  0  0  0
    4.1667   -1.5750    0.0000 O   0  0  0  0  0  0  0  0  0  0  0  0
    2.7417   -2.4042    0.0000 O   0  0  0  0  0  0  0  0  0  0  0  0
    4.8875   -3.6417    0.0000 C   0  0  0  0  0  0  0  0  0  0  0  0
    4.1667   -4.0542    0.0000 C   0  0  0  0  0  0  0  0  0  0  0  0
    3.4542   -3.6417    0.0000 C   0  0  0  0  0  0  0  0  0  0  0  0
    4.8792   -1.1625    0.0000 C   0  0  0  0  0  0  0  0  0  0  0  0
    2.0292   -2.8167    0.0000 C   0  0  0  0  0  0  0  0  0  0  0  0
  2  1  2  0
  3  1  1  0
  4  2  1  0
  5  4  2  0
  6  1  1  0
  7  3  1  0
  8  2  1  0
  9 10  1  0
 10  3  2  0
 11  6  1  0
 12  7  1  0
  9  8  2  0
M  END
>  <ID>  (2067) 


>  <MOLENAME>  (2067) 
o-VERATRALDEHYDE

>  <therap>  (2067) 
nan

>  <ref>  (2067) 
Phytochemistry 17:1383 (1978)

>  <cas#>  (2067) 
86-51-1

>  <source>  (2067) 
Machaerium kuhlmannii

>  <status>  (2067) 
undetermined activity

>  <tradename>  (2067) 
nan

>  <SMILES>  (2067) 
COc1cccc(C=O)c1OC

>  <standardized_failed>  (2067) 
False

$$$$

     RDKit          2D

 21 22  0  0  0  0  0  0  0  0999 V2000
    1.8542   -2.4292    0.0000 C   0  0  0  0  0  0  0  0  0  0  0  0
    2.5667   -2.8417    0.0000 N   0  0  0  0  0  0  0  0  0  0  0  0
    1.1417   -2.8417    0.0000 C   0  0  0  0  0  0  0  0  0  0  0  0
    3.2792   -2.4292    0.0000 C   0  0  0  0  0  0  0  0  0  0  0  0
    3.9917   -2.8417    0.0000 N   0  0  0  0  0  0  0  0  0  0  0  0
    1.8542   -1.6042    0.0000 O   0  0  0  0  0  0  0  0  0  0  0  0
    0.4292   -2.4292    0.0000 C   0  0  0  0  0  0  0  0  0  0  0  0
    1.1417   -3.6667    0.0000 C   0  0  0  0  0  0  0  0  0  0  0  0
    3.2792   -1.6042    0.0000 O   0  0  0  0  0  0  0  0  0  0  0  0
    4.7042   -2.4292    0.0000 C   0  0  0  0  0  0  0  0  0  0  0  0
    6.1292   -1.6042    0.0000 C   0  0  0  0  0  0  0  0  0  0  0  0
    0.4250   -1.6042    0.0000 F   0  0  0  0  0  0  0  0  0  0  0  0
    1.8625   -4.0792    0.0000 F   0  0  0  0  0  0  0  0  0  0  0  0
    6.8417   -1.1917    0.0000 Cl  0  0  0  0  0  0  0  0  0  0  0  0
    4.7042   -1.6042    0.0000 C   0  0  0  0  0  0  0  0  0  0  0  0
    5.4167   -2.8417    0.0000 C   0  0  0  0  0  0  0  0  0  0  0  0
    6.1292   -2.4292    0.0000 C   0  0  0  0  0  0  0  0  0  0  0  0
    5.4125   -1.1917    0.0000 C   0  0  0  0  0  0  0  0  0  0  0  0
   -0.2833   -3.6667    0.0000 C   0  0  0  0  0  0  0  0  0  0  0  0
   -0.2833   -2.8417    0.0000 C   0  0  0  0  0  0  0  0  0  0  0  0
    0.4292   -4.0792    0.0000 C   0  0  0  0  0  0  0  0  0  0  0  0
  2  1  1  0
  3  1  1  0
  4  2  1  0
  5  4  1  0
  6  1  2  0
  7  3  2  0
  8  3  1  0
  9  4  2  0
 10  5  1  0
 11 17  2  0
 12  7  1  0
 13  8  1  0
 14 11  1  0
 15 10  1  0
 16 10  2  0
 17 16  1  0
 18 15  2  0
 19 21  1  0
 20  7  1  0
 21  8  2  0
 19 20  2  0
 11 18  1  0
M  END
>  <ID>  (2068) 


>  <MOLENAME>  (2068) 
DIFLUBENZURON

>  <therap>  (2068) 
insecticide, inhibits melanosome synthesis

>  <ref>  (2068) 
Toxicol Appl Pharm 164:273 (2000)

>  <cas#>  (2068) 
35367-38-7

>  <source>  (2068) 
synthetic

>  <status>  (2068) 
experimental

>  <tradename>  (2068) 
nan

>  <SMILES>  (2068) 
O=C(NC(=O)c1c(F)cccc1F)Nc1ccc(Cl)cc1

>  <standardized_failed>  (2068) 
False

$$$$

     RDKit          2D

 10 10  0  0  0  0  0  0  0  0999 V2000
    3.8542   -1.8667    0.0000 C   0  0  0  0  0  0  0  0  0  0  0  0
    4.5667   -1.4542    0.0000 C   0  0  0  0  0  0  0  0  0  0  0  0
    3.1375   -3.1125    0.0000 N   0  0  0  0  0  0  0  0  0  0  0  0
    2.4250   -2.7000    0.0000 C   0  0  0  0  0  0  0  0  0  0  0  0
    3.8542   -2.7000    0.0000 C   0  0  0  0  0  0  0  0  0  0  0  0
    4.5625   -0.6292    0.0000 O   0  0  0  0  0  0  0  0  0  0  0  0
    3.1375   -1.4542    0.0000 C   0  0  0  0  0  0  0  0  0  0  0  0
    5.2792   -1.8625    0.0000 N   0  0  0  0  0  0  0  0  0  0  0  0
    2.4250   -1.8750    0.0000 C   0  0  0  0  0  0  0  0  0  0  0  0
    1.7042   -3.1125    0.0000 N   0  0  0  0  0  0  0  0  0  0  0  0
  2  1  1  0
  3  5  1  0
  4  9  1  0
  5  1  2  0
  6  2  2  0
  7  1  1  0
  8  2  1  0
  9  7  2  0
 10  4  1  0
  4  3  2  0
M  END
>  <ID>  (2069) 


>  <MOLENAME>  (2069) 
6-AMINONICOTINAMIDE

>  <therap>  (2069) 
antineoplastic, apoptosis inducer

>  <ref>  (2069) 
Biochem Pharmacol 50:1943 (1995); Cancer Chemother Pharmacol 40:376 (1997)

>  <cas#>  (2069) 
329-89-5

>  <source>  (2069) 
synthetic

>  <status>  (2069) 
experimental

>  <tradename>  (2069) 
nan

>  <SMILES>  (2069) 
NC(=O)c1cnc(N)cc1

>  <standardized_failed>  (2069) 
False

$$$$

     RDKit          2D

 17 19  0  0  0  0  0  0  0  0999 V2000
   -0.4500   -0.0292    0.0000 C   0  0  0  0  0  0  0  0  0  0  0  0
   -0.4500   -1.0000    0.0000 C   0  0  0  0  0  0  0  0  0  0  0  0
    0.4042    0.4708    0.0000 C   0  0  0  0  0  0  0  0  0  0  0  0
   -1.3125   -1.5042    0.0000 C   0  0  0  0  0  0  0  0  0  0  0  0
   -1.2958    0.4708    0.0000 C   0  0  0  0  0  0  0  0  0  0  0  0
    1.2667   -0.0292    0.0000 C   0  0  0  0  0  0  0  0  0  0  0  0
   -2.1708   -1.0000    0.0000 C   0  0  0  0  0  0  0  0  0  0  0  0
    0.4042    1.4625    0.0000 C   0  0  0  0  0  0  0  0  0  0  0  0
    0.4042   -1.5042    0.0000 C   0  0  0  0  0  0  0  0  0  0  0  0
    1.2667   -1.0292    0.0000 C   0  0  0  0  0  0  0  0  0  0  0  0
   -3.0333   -1.5042    0.0000 O   0  0  0  0  0  0  0  0  0  0  0  0
    2.1542    0.4708    0.0000 C   0  0  0  0  0  0  0  0  0  0  0  0
   -2.1833   -0.0042    0.0000 C   0  0  0  0  0  0  0  0  0  0  0  0
    1.2667    1.9458    0.0000 C   0  0  0  0  0  0  0  0  0  0  0  0
   -0.4625    0.8958    0.0000 C   0  0  0  0  0  0  0  0  0  0  0  0
    2.1500    1.4333    0.0000 C   0  0  0  0  0  0  0  0  0  0  0  0
    1.2542    2.8625    0.0000 O   0  0  0  0  0  0  0  0  0  0  0  0
  2  1  1  0
  3  1  1  0
  4  2  2  0
  5  1  1  0
  6  3  2  0
  7 13  1  0
  8  3  1  0
  9  2  1  0
 10  6  1  0
 11  7  2  0
 12  6  1  0
 13  5  1  0
 14  8  2  0
  1 15  1  1
 16 14  1  0
 17 14  1  0
  7  4  1  0
  9 10  1  0
 12 16  2  0
M  END
>  <ID>  (2070) 


>  <MOLENAME>  (2070) 
12-HYDROXY-4.4-BISNOR-4.8.11.13-PODOCARPATETRAEN-3-ONE

>  <therap>  (2070) 
nan

>  <ref>  (2070) 
nan

>  <cas#>  (2070) 
nan

>  <source>  (2070) 
semisynthetic

>  <status>  (2070) 
undetermined activity

>  <tradename>  (2070) 
nan

>  <SMILES>  (2070) 
C[C@]12CCC(=O)C=C1CCc1c2cc(O)cc1

>  <standardized_failed>  (2070) 
False

$$$$

     RDKit          2D

 18 20  0  0  0  0  0  0  0  0999 V2000
    5.7542   -4.4167    0.0000 C   0  0  0  0  0  0  0  0  0  0  0  0
    6.5542   -3.9667    0.0000 C   0  0  0  0  0  0  0  0  0  0  0  0
    5.7542   -5.3417    0.0000 C   0  0  0  0  0  0  0  0  0  0  0  0
    4.9542   -3.9667    0.0000 C   0  0  0  0  0  0  0  0  0  0  0  0
    7.3542   -4.4167    0.0000 C   0  0  0  0  0  0  0  0  0  0  0  0
    6.5667   -3.0417    0.0000 C   0  0  0  0  0  0  0  0  0  0  0  0
    4.9542   -5.7917    0.0000 C   0  0  0  0  0  0  0  0  0  0  0  0
    6.5542   -5.7917    0.0000 C   0  0  0  0  0  0  0  0  0  0  0  0
    7.3542   -5.3417    0.0000 C   0  0  0  0  0  0  0  0  0  0  0  0
    8.1417   -3.9667    0.0000 C   0  0  0  0  0  0  0  0  0  0  0  0
    7.3417   -2.5792    0.0000 C   0  0  0  0  0  0  0  0  0  0  0  0
    4.1542   -4.4167    0.0000 C   0  0  0  0  0  0  0  0  0  0  0  0
    4.1542   -5.3417    0.0000 C   0  0  0  0  0  0  0  0  0  0  0  0
    5.7542   -3.3792    0.0000 C   0  0  0  0  0  0  0  0  0  0  0  0
    8.1417   -3.0292    0.0000 C   0  0  0  0  0  0  0  0  0  0  0  0
    3.3542   -5.8167    0.0000 O   0  0  0  0  0  0  0  0  0  0  0  0
    7.3417   -1.6542    0.0000 O   0  0  0  0  0  0  0  0  0  0  0  0
    8.0917   -1.2042    0.0000 C   0  0  0  0  0  0  0  0  0  0  0  0
  2  1  1  0
  3  1  1  0
  4  1  1  0
  5  2  2  0
  6  2  1  0
  3  7  1  6
  8  3  1  0
  9  8  1  0
 10  5  1  0
 11  6  2  0
 12  4  1  0
 13 12  1  0
  1 14  1  1
 15 11  1  0
 13 16  1  6
 17 11  1  0
 18 17  1  0
 13  7  1  0
  9  5  1  0
 10 15  2  0
M  END
>  <ID>  (2071) 


>  <MOLENAME>  (2071) 
12-METHOXY-4.4-BISNOR-5beta-8.11.13-PODOCARPATRIEN-3-OL

>  <therap>  (2071) 
nan

>  <ref>  (2071) 
nan

>  <cas#>  (2071) 
nan

>  <source>  (2071) 
semisynthetic

>  <status>  (2071) 
undetermined activity

>  <tradename>  (2071) 
nan

>  <SMILES>  (2071) 
COc1cc2c(cc1)CC[C@@H]1C[C@H](O)CC[C@]21C

>  <standardized_failed>  (2071) 
False

$$$$

     RDKit          2D

 10 10  0  0  0  0  0  0  0  0999 V2000
    5.3125   -3.6917    0.0000 N   0  0  0  0  0  0  0  0  0  0  0  0
    4.6000   -2.4542    0.0000 N   0  0  0  0  0  0  0  0  0  0  0  0
    3.8917   -2.8667    0.0000 C   0  0  0  0  0  0  0  0  0  0  0  0
    4.6000   -4.1042    0.0000 C   0  0  0  0  0  0  0  0  0  0  0  0
    3.8917   -3.6917    0.0000 C   0  0  0  0  0  0  0  0  0  0  0  0
    5.3125   -2.8667    0.0000 C   0  0  0  0  0  0  0  0  0  0  0  0
    3.1750   -4.1042    0.0000 O   0  0  0  0  0  0  0  0  0  0  0  0
    3.1750   -2.4542    0.0000 O   0  0  0  0  0  0  0  0  0  0  0  0
    4.6000   -4.9292    0.0000 O   0  0  0  0  0  0  0  0  0  0  0  0
    6.0292   -2.4542    0.0000 O   0  0  0  0  0  0  0  0  0  0  0  0
  2  6  1  0
  3  2  1  0
  4  1  1  0
  5  4  1  0
  6  1  1  0
  7  5  2  0
  8  3  2  0
  9  4  2  0
 10  6  2  0
  5  3  1  0
M  END
>  <ID>  (2072) 


>  <MOLENAME>  (2072) 
ALLOXAN

>  <therap>  (2072) 
specific cytotoxin (pacreatic islet betacell)

>  <ref>  (2072) 
nan

>  <cas#>  (2072) 
2244-11-3

>  <source>  (2072) 
synthetic

>  <status>  (2072) 
experimental

>  <tradename>  (2072) 
nan

>  <SMILES>  (2072) 
O=C1NC(=O)C(=O)C(=O)N1

>  <standardized_failed>  (2072) 
False

$$$$

     RDKit          2D

 47 52  0  0  0  0  0  0  0  0999 V2000
    6.8792   -9.4542    0.0000 C   0  0  0  0  0  0  0  0  0  0  0  0
    7.8792   -8.5667    0.0000 C   0  0  0  0  0  0  0  0  0  0  0  0
    9.1792   -8.0000    0.0000 C   0  0  0  0  0  0  0  0  0  0  0  0
    8.3542   -7.9042    0.0000 C   0  0  0  0  0  0  0  0  0  0  0  0
    8.2042   -9.3250    0.0000 C   0  0  0  0  0  0  0  0  0  0  0  0
    5.4542  -11.1000    0.0000 C   0  0  0  0  0  0  0  0  0  0  0  0
    9.6667   -7.3375    0.0000 C   0  0  0  0  0  0  0  0  0  0  0  0
    6.1667   -9.8625    0.0000 C   0  0  0  0  0  0  0  0  0  0  0  0
    6.2792  -11.4875    0.0000 O   0  0  0  0  0  0  0  0  0  0  0  0
    7.5917   -9.8667    0.0000 C   0  0  0  0  0  0  0  0  0  0  0  0
    8.5292   -6.4875    0.0000 N   0  0  0  0  0  0  0  0  0  0  0  0
    7.0542   -8.6500    0.0000 C   0  0  0  0  0  0  0  0  0  0  0  0
    6.1667  -10.6875    0.0000 C   0  0  0  0  0  0  0  0  0  0  0  0
    5.2167   -6.9250    0.0000 S   0  0  0  0  0  0  0  0  0  0  0  0
    9.3417   -6.5875    0.0000 C   0  0  0  0  0  0  0  0  0  0  0  0
    9.0167   -9.4125    0.0000 C   0  0  0  0  0  0  0  0  0  0  0  0
    9.5042   -8.7542    0.0000 C   0  0  0  0  0  0  0  0  0  0  0  0
    8.0292   -7.1500    0.0000 C   0  0  0  0  0  0  0  0  0  0  0  0
    4.7542  -10.6875    0.0000 C   0  0  0  0  0  0  0  0  0  0  0  0
    3.4667  -11.1000    0.0000 C   0  0  0  0  0  0  0  0  0  0  0  0
    4.0292  -11.1000    0.0000 O   0  0  0  0  0  0  0  0  0  0  0  0
    7.5917  -10.7000    0.0000 C   0  0  0  0  0  0  0  0  0  0  0  0
    5.4542   -9.4500    0.0000 C   0  0  0  0  0  0  0  0  0  0  0  0
    6.8792  -11.1042    0.0000 C   0  0  0  0  0  0  0  0  0  0  0  0
    3.0542  -10.4250    0.0000 C   0  0  0  0  0  0  0  0  0  0  0  0
    8.1917   -5.7292    0.0000 C   0  0  0  0  0  0  0  0  0  0  0  0
    9.8417   -5.9250    0.0000 C   0  0  0  0  0  0  0  0  0  0  0  0
    5.2167   -6.2667    0.0000 O   0  0  0  0  0  0  0  0  0  0  0  0
    4.5667   -6.9250    0.0000 O   0  0  0  0  0  0  0  0  0  0  0  0
    4.7542   -9.8625    0.0000 C   0  0  0  0  0  0  0  0  0  0  0  0
    3.0667  -11.7875    0.0000 O   0  0  0  0  0  0  0  0  0  0  0  0
    7.2917   -7.9750    0.0000 O   0  0  0  0  0  0  0  0  0  0  0  0
   10.4917   -7.3375    0.0000 O   0  0  0  0  0  0  0  0  0  0  0  0
    9.9292   -8.1125    0.0000 O   0  0  0  0  0  0  0  0  0  0  0  0
    8.4167  -10.1125    0.0000 O   0  0  0  0  0  0  0  0  0  0  0  0
    5.4542  -11.9250    0.0000 O   0  0  0  0  0  0  0  0  0  0  0  0
    5.8667   -6.9250    0.0000 O   0  0  0  0  0  0  0  0  0  0  0  0
    5.2167   -7.5750    0.0000 O   0  0  0  0  0  0  0  0  0  0  0  0
    2.2542  -10.4250    0.0000 C   0  0  0  0  0  0  0  0  0  0  0  0
   10.0792   -6.6167    0.0000 C   0  0  0  0  0  0  0  0  0  0  0  0
   10.3042   -8.9625    0.0000 O   0  0  0  0  0  0  0  0  0  0  0  0
    6.1542   -9.0542    0.0000 C   0  0  0  0  0  0  0  0  0  0  0  0
    9.5167   -5.1667    0.0000 C   0  0  0  0  0  0  0  0  0  0  0  0
    8.6917   -5.0667    0.0000 C   0  0  0  0  0  0  0  0  0  0  0  0
    3.4542   -9.7250    0.0000 C   0  0  0  0  0  0  0  0  0  0  0  0
    1.8542  -11.1125    0.0000 C   0  0  0  0  0  0  0  0  0  0  0  0
    8.4792   -4.2542    0.0000 C   0  0  0  0  0  0  0  0  0  0  0  0
  2 12  1  0
  3  4  1  0
  4  2  1  0
  5 10  1  0
  6  9  1  0
  3  7  1  0
  8  1  1  0
  1  9  1  0
 10  1  1  0
 11 18  1  0
  1 12  1  6
 13  8  1  0
 15  7  1  0
 16  5  1  0
 17 16  1  0
  4 18  1  6
 19  6  1  0
 20 21  1  0
 19 21  1  1
 10 22  1  6
 23  8  1  0
 24 22  1  0
 25 20  1  0
 26 11  1  0
 15 27  1  1
 28 14  2  0
 29 14  2  0
 30 23  1  0
 31 20  2  0
  2 32  1  6
  7 33  1  0
  3 34  1  6
  5 35  1  6
  6 36  1  1
 37 14  1  0
 38 14  1  0
 39 25  2  0
  7 40  1  6
 17 41  1  1
  8 42  1  1
 43 27  1  0
 44 26  1  0
 45 25  1  0
 46 39  1  0
 44 47  1  1
  5  2  1  0
 13  6  1  0
 13 24  1  6
 19 30  1  0
 17  3  1  0
 15 11  1  0
 43 44  1  0
M  END
>  <ID>  (2073) 


>  <MOLENAME>  (2073) 
VERATRINE SULFATE

>  <therap>  (2073) 
antihypertensive

>  <ref>  (2073) 
nan

>  <cas#>  (2073) 
62-59-9

>  <source>  (2073) 
Schoenocaulon officinale; shown as cevadine

>  <status>  (2073) 
experimental

>  <tradename>  (2073) 
nan

>  <SMILES>  (2073) 
C/C=C(/C)C(=O)O[C@H]1CC[C@@]2(C)[C@@H]3CC[C@@H]4[C@@]2(C[C@@]2(O)[C@@H]5CN6C[C@@H](C)CC[C@H]6[C@@](C)(O)[C@@]5(O)[C@@H](O)C[C@@]42O)O[C@]13O

>  <standardized_failed>  (2073) 
False

$$$$

     RDKit          2D

 28 31  0  0  0  0  0  0  0  0999 V2000
    5.6417   -2.9125    0.0000 C   0  0  0  0  0  0  0  0  0  0  0  0
    3.4917   -4.1292    0.0000 C   0  0  0  0  0  0  0  0  0  0  0  0
    5.6292   -3.7375    0.0000 C   0  0  0  0  0  0  0  0  0  0  0  0
    4.2042   -3.7167    0.0000 C   0  0  0  0  0  0  0  0  0  0  0  0
    4.9125   -4.1417    0.0000 C   0  0  0  0  0  0  0  0  0  0  0  0
    6.4250   -2.6750    0.0000 C   0  0  0  0  0  0  0  0  0  0  0  0
    3.4875   -4.9542    0.0000 C   0  0  0  0  0  0  0  0  0  0  0  0
    4.9292   -2.4917    0.0000 C   0  0  0  0  0  0  0  0  0  0  0  0
    4.2125   -2.8917    0.0000 C   0  0  0  0  0  0  0  0  0  0  0  0
    6.4042   -4.0042    0.0000 C   0  0  0  0  0  0  0  0  0  0  0  0
    2.7792   -3.7167    0.0000 C   0  0  0  0  0  0  0  0  0  0  0  0
    6.9000   -3.3417    0.0000 C   0  0  0  0  0  0  0  0  0  0  0  0
    4.9167   -4.9625    0.0000 C   0  0  0  0  0  0  0  0  0  0  0  0
    4.2000   -5.3667    0.0000 C   0  0  0  0  0  0  0  0  0  0  0  0
    2.7792   -5.3667    0.0000 C   0  0  0  0  0  0  0  0  0  0  0  0
    6.8292   -1.9542    0.0000 C   0  0  0  0  0  0  0  0  0  0  0  0
    5.6375   -2.0875    0.0000 C   0  0  0  0  0  0  0  0  0  0  0  0
    2.0667   -4.1292    0.0000 C   0  0  0  0  0  0  0  0  0  0  0  0
    2.0667   -4.9542    0.0000 C   0  0  0  0  0  0  0  0  0  0  0  0
    3.4875   -3.3042    0.0000 C   0  0  0  0  0  0  0  0  0  0  0  0
    1.3542   -5.3667    0.0000 O   0  0  0  0  0  0  0  0  0  0  0  0
    8.0750   -2.6542    0.0000 C   0  0  0  0  0  0  0  0  0  0  0  0
    7.6542   -1.9500    0.0000 C   0  0  0  0  0  0  0  0  0  0  0  0
    6.4125   -1.2417    0.0000 C   0  0  0  0  0  0  0  0  0  0  0  0
    8.9000   -2.6500    0.0000 C   0  0  0  0  0  0  0  0  0  0  0  0
    9.3167   -3.3625    0.0000 C   0  0  0  0  0  0  0  0  0  0  0  0
   10.1417   -3.3542    0.0000 C   0  0  0  0  0  0  0  0  0  0  0  0
    8.9125   -4.0792    0.0000 C   0  0  0  0  0  0  0  0  0  0  0  0
  2  4  1  0
  3  1  1  0
  4  9  1  0
  5  3  1  0
  6  1  1  0
  7  2  1  0
  8  1  1  0
  9  8  1  0
 10  3  1  0
 11  2  1  0
 12  6  1  0
 13  5  1  0
 14 13  1  0
  7 15  1  1
 16  6  1  0
  1 17  1  1
 18 11  1  0
 19 18  1  0
  2 20  1  1
 19 21  1  6
 22 23  1  0
 23 16  1  0
 24 16  1  0
 25 22  1  0
 26 25  1  0
 27 26  1  0
 28 26  1  0
 12 10  1  0
  4  5  1  0
 14  7  1  0
 19 15  1  0
M  END
>  <ID>  (2074) 


>  <MOLENAME>  (2074) 
EPICHOLESTANOL

>  <therap>  (2074) 
alveolar blennorrhea therapy

>  <ref>  (2074) 
Helv Chim Acta 17:1407 (1934); J Chem Soc 1940:1390; 1940:1483 

>  <cas#>  (2074) 
516-95-0

>  <source>  (2074) 
semisynthetic

>  <status>  (2074) 
experimental

>  <tradename>  (2074) 
nan

>  <SMILES>  (2074) 
CC(C)CCCC(C)C1CCC2C3CC[C@H]4C[C@H](O)CC[C@]4(C)C3CC[C@]12C

>  <standardized_failed>  (2074) 
False

$$$$

     RDKit          2D

 14 14  0  0  0  0  0  0  0  0999 V2000
    6.8042   -2.6750    0.0000 C   0  0  0  0  0  0  0  0  0  0  0  0
    7.5167   -2.2625    0.0000 C   0  0  0  0  0  0  0  0  0  0  0  0
    6.8125   -3.5042    0.0000 C   0  0  0  0  0  0  0  0  0  0  0  0
    6.0917   -2.2625    0.0000 C   0  0  0  0  0  0  0  0  0  0  0  0
    5.3667   -1.8417    0.0000 N   0  0  0  0  0  0  0  0  0  0  0  0
    7.5167   -1.4292    0.0000 O   0  0  0  0  0  0  0  0  0  0  0  0
    6.0917   -3.9250    0.0000 C   0  0  0  0  0  0  0  0  0  0  0  0
    8.2375   -2.6750    0.0000 O   0  0  0  0  0  0  0  0  0  0  0  0
    4.6625   -4.7542    0.0000 C   0  0  0  0  0  0  0  0  0  0  0  0
    5.3750   -3.5125    0.0000 C   0  0  0  0  0  0  0  0  0  0  0  0
    6.0917   -4.7542    0.0000 C   0  0  0  0  0  0  0  0  0  0  0  0
    4.6625   -3.9250    0.0000 C   0  0  0  0  0  0  0  0  0  0  0  0
    5.3750   -5.1667    0.0000 C   0  0  0  0  0  0  0  0  0  0  0  0
    3.9417   -5.1792    0.0000 O   0  0  0  0  0  0  0  0  0  0  0  0
  2  1  1  0
  3  1  2  0
  4  1  1  0
  5  4  3  0
  6  2  2  0
  7  3  1  0
  8  2  1  0
  9 13  1  0
 10  7  2  0
 11  7  1  0
 12 10  1  0
 13 11  2  0
 14  9  1  0
  9 12  2  0
M  END
>  <ID>  (2075) 


>  <MOLENAME>  (2075) 
alpha-CYANO-4-HYDROXYCINNAMIC ACID

>  <therap>  (2075) 
inhibitor of mitochondrial pyruvate transport

>  <ref>  (2075) 
nan

>  <cas#>  (2075) 
nan

>  <source>  (2075) 
synthetic

>  <status>  (2075) 
experimental

>  <tradename>  (2075) 
nan

>  <SMILES>  (2075) 
N#C/C(=C\c1ccc(O)cc1)C(=O)O

>  <standardized_failed>  (2075) 
False

$$$$

     RDKit          2D

 21 24  0  0  0  0  0  0  0  0999 V2000
    7.6042   -2.8042    0.0000 C   0  0  0  0  0  0  0  0  0  0  0  0
    7.6042   -3.6292    0.0000 C   0  0  0  0  0  0  0  0  0  0  0  0
    6.8917   -4.0542    0.0000 C   0  0  0  0  0  0  0  0  0  0  0  0
    6.1667   -3.6292    0.0000 C   0  0  0  0  0  0  0  0  0  0  0  0
    5.4542   -4.0542    0.0000 C   0  0  0  0  0  0  0  0  0  0  0  0
    5.4542   -4.8792    0.0000 C   0  0  0  0  0  0  0  0  0  0  0  0
    6.8875   -2.3917    0.0000 C   0  0  0  0  0  0  0  0  0  0  0  0
    6.1667   -2.8042    0.0000 C   0  0  0  0  0  0  0  0  0  0  0  0
    6.8917   -4.8792    0.0000 C   0  0  0  0  0  0  0  0  0  0  0  0
    8.4000   -3.8917    0.0000 C   0  0  0  0  0  0  0  0  0  0  0  0
    4.7417   -3.6292    0.0000 C   0  0  0  0  0  0  0  0  0  0  0  0
    8.4000   -2.5542    0.0000 C   0  0  0  0  0  0  0  0  0  0  0  0
    6.1667   -5.2917    0.0000 C   0  0  0  0  0  0  0  0  0  0  0  0
    4.7417   -5.2917    0.0000 C   0  0  0  0  0  0  0  0  0  0  0  0
    8.8792   -3.2042    0.0000 C   0  0  0  0  0  0  0  0  0  0  0  0
    4.0167   -4.8792    0.0000 C   0  0  0  0  0  0  0  0  0  0  0  0
    4.0167   -4.0542    0.0000 C   0  0  0  0  0  0  0  0  0  0  0  0
    7.6042   -2.0292    0.0000 C   0  0  0  0  0  0  0  0  0  0  0  0
    8.5792   -1.7417    0.0000 O   0  0  0  0  0  0  0  0  0  0  0  0
    3.3000   -5.2917    0.0000 O   0  0  0  0  0  0  0  0  0  0  0  0
    2.5875   -4.8917    0.0000 C   0  0  0  0  0  0  0  0  0  0  0  0
  2  1  1  0
  3  2  1  0
  4  8  1  0
  5  4  1  0
  6  5  2  0
  7  1  1  0
  8  7  1  0
  9  3  1  0
 10  2  1  0
 11  5  1  0
 12  1  1  0
 13  9  1  0
 14  6  1  0
 15 12  1  0
 16 17  1  0
 17 11  2  0
  1 18  1  1
 12 19  1  1
 20 16  1  0
 21 20  1  0
 15 10  1  0
  3  4  1  0
 13  6  1  0
 16 14  2  0
M  END
>  <ID>  (2076) 


>  <MOLENAME>  (2076) 
ESTRADIOL METHYL ETHER

>  <therap>  (2076) 
estrogen

>  <ref>  (2076) 
JACS 100: 6218 (1978)

>  <cas#>  (2076) 
1035-77-4

>  <source>  (2076) 
semisynthetic

>  <status>  (2076) 
experimental

>  <tradename>  (2076) 
nan

>  <SMILES>  (2076) 
COc1cc2c(cc1)C1CC[C@@]3(C)C(CC[C@@H]3O)C1CC2

>  <standardized_failed>  (2076) 
False

$$$$

     RDKit          2D

 78 78  0  0  0  0  0  0  0  0999 V2000
    8.7625  -21.3250    0.0000 N   0  0  0  0  0  0  0  0  0  0  0  0
    4.1750  -18.0042    0.0000 N   0  0  0  0  0  0  0  0  0  0  0  0
    2.6125  -22.0083    0.0000 N   0  0  0  0  0  0  0  0  0  0  0  0
    1.1792  -19.8375    0.0000 N   0  0  0  0  0  0  0  0  0  0  0  0
    5.9333  -21.8542    0.0000 N   0  0  0  0  0  0  0  0  0  0  0  0
    7.3167  -18.0250    0.0000 N   0  0  0  0  0  0  0  0  0  0  0  0
    3.1750  -21.0375    0.0000 C   0  0  0  0  0  0  0  0  0  0  0  0
    8.7625  -20.5000    0.0000 C   0  0  0  0  0  0  0  0  0  0  0  0
    3.4583  -18.4167    0.0000 C   0  0  0  0  0  0  0  0  0  0  0  0
    4.2750  -21.8417    0.0000 O   0  0  0  0  0  0  0  0  0  0  0  0
    2.0292  -18.4167    0.0000 O   0  0  0  0  0  0  0  0  0  0  0  0
    9.1625  -19.2583    0.0000 O   0  0  0  0  0  0  0  0  0  0  0  0
    1.2042  -18.4042    0.0000 C   0  0  0  0  0  0  0  0  0  0  0  0
    9.1625  -18.4333    0.0000 C   0  0  0  0  0  0  0  0  0  0  0  0
    4.6792  -22.5583    0.0000 C   0  0  0  0  0  0  0  0  0  0  0  0
    5.1750  -16.7875    0.0000 C   0  0  0  0  0  0  0  0  0  0  0  0
    1.3583  -22.7125    0.0000 C   0  0  0  0  0  0  0  0  0  0  0  0
    8.0417  -22.5667    0.0000 C   0  0  0  0  0  0  0  0  0  0  0  0
    6.6125  -20.9167    0.0000 C   0  0  0  0  0  0  0  0  0  0  0  0
    0.8417  -20.6292    0.0000 C   0  0  0  0  0  0  0  0  0  0  0  0
    6.6000  -18.4375    0.0000 C   0  0  0  0  0  0  0  0  0  0  0  0
    0.9542  -21.9958    0.0000 O   0  0  0  0  0  0  0  0  0  0  0  0
    7.3292  -22.1542    0.0000 O   0  0  0  0  0  0  0  0  0  0  0  0
    5.8875  -17.2000    0.0000 O   0  0  0  0  0  0  0  0  0  0  0  0
    8.4417  -18.0167    0.0000 C   0  0  0  0  0  0  0  0  0  0  0  0
    5.5125  -22.5667    0.0000 C   0  0  0  0  0  0  0  0  0  0  0  0
    0.7792  -19.1167    0.0000 C   0  0  0  0  0  0  0  0  0  0  0  0
    4.4542  -17.2042    0.0000 C   0  0  0  0  0  0  0  0  0  0  0  0
    2.1917  -22.7208    0.0000 C   0  0  0  0  0  0  0  0  0  0  0  0
    8.7625  -22.1500    0.0000 C   0  0  0  0  0  0  0  0  0  0  0  0
    9.4750  -20.0833    0.0000 C   0  0  0  0  0  0  0  0  0  0  0  0
    4.0000  -21.0375    0.0000 C   0  0  0  0  0  0  0  0  0  0  0  0
    2.7458  -18.0042    0.0000 C   0  0  0  0  0  0  0  0  0  0  0  0
    7.3292  -21.3292    0.0000 C   0  0  0  0  0  0  0  0  0  0  0  0
    5.8875  -18.0250    0.0000 C   0  0  0  0  0  0  0  0  0  0  0  0
    1.3708  -21.2833    0.0000 C   0  0  0  0  0  0  0  0  0  0  0  0
    2.7667  -20.3208    0.0000 O   0  0  0  0  0  0  0  0  0  0  0  0
    3.4583  -19.1917    0.0000 O   0  0  0  0  0  0  0  0  0  0  0  0
    8.0458  -20.0875    0.0000 O   0  0  0  0  0  0  0  0  0  0  0  0
    4.2625  -23.2667    0.0000 O   0  0  0  0  0  0  0  0  0  0  0  0
    9.8750  -18.0208    0.0000 O   0  0  0  0  0  0  0  0  0  0  0  0
    0.8042  -17.6833    0.0000 O   0  0  0  0  0  0  0  0  0  0  0  0
    8.0417  -23.3917    0.0000 O   0  0  0  0  0  0  0  0  0  0  0  0
    0.9417  -23.4208    0.0000 O   0  0  0  0  0  0  0  0  0  0  0  0
    5.1750  -15.9667    0.0000 O   0  0  0  0  0  0  0  0  0  0  0  0
    6.6125  -20.0917    0.0000 O   0  0  0  0  0  0  0  0  0  0  0  0
    6.6000  -19.2625    0.0000 O   0  0  0  0  0  0  0  0  0  0  0  0
    0.0833  -20.6292    0.0000 O   0  0  0  0  0  0  0  0  0  0  0  0
    4.0500  -16.6042    0.0000 C   0  0  0  0  0  0  0  0  0  0  0  0
    5.9167  -23.2833    0.0000 C   0  0  0  0  0  0  0  0  0  0  0  0
    2.5958  -23.4375    0.0000 C   0  0  0  0  0  0  0  0  0  0  0  0
    9.4750  -22.5667    0.0000 C   0  0  0  0  0  0  0  0  0  0  0  0
    8.5875  -17.3292    0.0000 C   0  0  0  0  0  0  0  0  0  0  0  0
   -0.0458  -19.1000    0.0000 C   0  0  0  0  0  0  0  0  0  0  0  0
    4.2917  -20.5750    0.0000 C   0  0  0  0  0  0  0  0  0  0  0  0
   10.2083  -20.0792    0.0000 C   0  0  0  0  0  0  0  0  0  0  0  0
    2.7458  -17.3667    0.0000 C   0  0  0  0  0  0  0  0  0  0  0  0
    2.1958  -21.2917    0.0000 C   0  0  0  0  0  0  0  0  0  0  0  0
    8.0417  -20.9167    0.0000 C   0  0  0  0  0  0  0  0  0  0  0  0
    5.1750  -18.4375    0.0000 C   0  0  0  0  0  0  0  0  0  0  0  0
   10.5875  -20.6417    0.0000 C   0  0  0  0  0  0  0  0  0  0  0  0
   10.6792  -19.4542    0.0000 C   0  0  0  0  0  0  0  0  0  0  0  0
    9.2750  -17.0792    0.0000 C   0  0  0  0  0  0  0  0  0  0  0  0
    3.4250  -23.4458    0.0000 C   0  0  0  0  0  0  0  0  0  0  0  0
   -0.4500  -18.3833    0.0000 C   0  0  0  0  0  0  0  0  0  0  0  0
    9.4750  -23.3917    0.0000 C   0  0  0  0  0  0  0  0  0  0  0  0
    2.1792  -24.1500    0.0000 C   0  0  0  0  0  0  0  0  0  0  0  0
    8.0583  -16.8292    0.0000 C   0  0  0  0  0  0  0  0  0  0  0  0
    3.2375  -16.3833    0.0000 C   0  0  0  0  0  0  0  0  0  0  0  0
    6.7458  -23.2917    0.0000 C   0  0  0  0  0  0  0  0  0  0  0  0
   10.1917  -22.1500    0.0000 C   0  0  0  0  0  0  0  0  0  0  0  0
   -0.4708  -19.8125    0.0000 C   0  0  0  0  0  0  0  0  0  0  0  0
    5.5000  -23.9958    0.0000 C   0  0  0  0  0  0  0  0  0  0  0  0
    4.2375  -15.8167    0.0000 C   0  0  0  0  0  0  0  0  0  0  0  0
    5.0792  -20.4125    0.0000 C   0  0  0  0  0  0  0  0  0  0  0  0
    4.0792  -19.7875    0.0000 C   0  0  0  0  0  0  0  0  0  0  0  0
    2.0208  -16.9500    0.0000 C   0  0  0  0  0  0  0  0  0  0  0  0
    3.2667  -16.8250    0.0000 C   0  0  0  0  0  0  0  0  0  0  0  0
  2 28  1  0
  3  7  1  0
  4 20  1  0
  5 19  1  0
  6 25  1  0
  7 32  1  0
  8  1  1  0
  9  2  1  0
 10 15  1  0
 11 33  1  0
 12 31  1  0
 13 11  1  0
 14 12  1  0
 15 26  1  0
 16 24  1  0
 17 29  1  0
 18 30  1  0
 19 34  1  0
 20 36  1  0
 21  6  1  0
 22 17  1  0
 23 18  1  0
 24 35  1  0
 25 14  1  0
 26  5  1  0
 27 13  1  0
 28 16  1  0
 29  3  1  0
 30  1  1  0
 31  8  1  0
 32 10  1  0
 33  9  1  0
 34 23  1  0
 35 21  1  0
 36 22  1  0
 37  7  2  0
 38  9  2  0
 39  8  2  0
 40 15  2  0
 41 14  2  0
 42 13  2  0
 43 18  2  0
 44 17  2  0
 45 16  2  0
 46 19  2  0
 47 21  2  0
 48 20  2  0
 28 49  1  6
 26 50  1  1
 29 51  1  6
 30 52  1  6
 25 53  1  1
 27 54  1  1
 55 32  1  0
 56 31  1  0
 57 33  1  0
 58 36  1  0
 59 34  1  0
 60 35  1  0
 61 56  1  0
 62 56  1  0
 63 53  1  0
 64 51  1  0
 65 54  1  0
 66 52  1  0
 67 51  1  0
 68 53  1  0
 69 49  1  0
 70 50  1  0
 71 52  1  0
 72 54  1  0
 73 50  1  0
 74 49  1  0
 75 55  1  0
 76 55  1  0
 77 57  1  0
 78 57  1  0
  4 27  1  0
M  END
>  <ID>  (2077) 


>  <MOLENAME>  (2077) 
VALINOMYCIN

>  <therap>  (2077) 
antibiotic; LD50 (rat, po) 4 mg/kg

>  <ref>  (2077) 
Chem Ber 88:57 (1955); Biochem Biophys Res Commun 15:1964 (1964); JACS 99:2032 (1977)

>  <cas#>  (2077) 
2001-95-8

>  <source>  (2077) 
Streptomyces spp

>  <status>  (2077) 
experimental

>  <tradename>  (2077) 
nan

>  <SMILES>  (2077) 
CC1OC(=O)[C@@H](C(C)C)NC(=O)C(C(C)C)OC(=O)[C@H](C(C)C)NC(=O)C(C)OC(=O)[C@@H](C(C)C)NC(=O)C(C(C)C)OC(=O)[C@H](C(C)C)NC(=O)C(C)OC(=O)[C@@H](C(C)C)NC(=O)C(C(C)C)OC(=O)[C@H](C(C)C)NC1=O

>  <standardized_failed>  (2077) 
False

$$$$

     RDKit          2D

 13 14  0  0  0  0  0  0  0  0999 V2000
    4.3500   -2.2125    0.0000 C   0  0  0  0  0  0  0  0  0  0  0  0
    3.8667   -2.8792    0.0000 N   0  0  0  0  0  0  0  0  0  0  0  0
    3.8542   -1.5417    0.0000 C   0  0  0  0  0  0  0  0  0  0  0  0
    3.0750   -1.8042    0.0000 C   0  0  0  0  0  0  0  0  0  0  0  0
    3.0792   -2.6292    0.0000 C   0  0  0  0  0  0  0  0  0  0  0  0
    5.1750   -2.2042    0.0000 C   0  0  0  0  0  0  0  0  0  0  0  0
    2.3542   -1.3917    0.0000 C   0  0  0  0  0  0  0  0  0  0  0  0
    5.5792   -1.4917    0.0000 O   0  0  0  0  0  0  0  0  0  0  0  0
    2.3542   -3.0500    0.0000 C   0  0  0  0  0  0  0  0  0  0  0  0
    1.6417   -1.8125    0.0000 C   0  0  0  0  0  0  0  0  0  0  0  0
    5.5917   -2.9167    0.0000 O   0  0  0  0  0  0  0  0  0  0  0  0
    1.6417   -2.6375    0.0000 C   0  0  0  0  0  0  0  0  0  0  0  0
    0.9292   -1.4000    0.0000 Cl  0  0  0  0  0  0  0  0  0  0  0  0
  2  1  1  0
  3  1  2  0
  4  3  1  0
  5  2  1  0
  6  1  1  0
  7  4  2  0
  8  6  2  0
  9  5  2  0
 10  7  1  0
 11  6  1  0
 12  9  1  0
 13 10  1  0
  4  5  1  0
 10 12  2  0
M  END
>  <ID>  (2078) 


>  <MOLENAME>  (2078) 
5-CHLOROINDOLE-2-CARBOXYLIC ACID

>  <therap>  (2078) 
NMDA receptor antagonist (gly)

>  <ref>  (2078) 
nan

>  <cas#>  (2078) 
10517-21-2

>  <source>  (2078) 
synthetic

>  <status>  (2078) 
experimental

>  <tradename>  (2078) 
nan

>  <SMILES>  (2078) 
O=C(O)c1cc2cc(Cl)ccc2[nH]1

>  <standardized_failed>  (2078) 
False

$$$$

     RDKit          2D

 21 22  0  0  0  0  0  0  0  0999 V2000
    6.2792   -2.9292    0.0000 C   0  0  0  0  0  0  0  0  0  0  0  0
    5.5667   -4.1667    0.0000 N   0  0  0  0  0  0  0  0  0  0  0  0
    5.5667   -2.5167    0.0000 N   0  0  0  0  0  0  0  0  0  0  0  0
    4.8542   -3.7542    0.0000 C   0  0  0  0  0  0  0  0  0  0  0  0
    7.0042   -2.5167    0.0000 C   0  0  0  0  0  0  0  0  0  0  0  0
    6.2792   -3.7542    0.0000 C   0  0  0  0  0  0  0  0  0  0  0  0
    4.8542   -2.9292    0.0000 C   0  0  0  0  0  0  0  0  0  0  0  0
    7.7167   -2.9250    0.0000 N   0  0  0  0  0  0  0  0  0  0  0  0
    8.4292   -2.5167    0.0000 C   0  0  0  0  0  0  0  0  0  0  0  0
    4.1292   -4.1792    0.0000 N   0  0  0  0  0  0  0  0  0  0  0  0
    8.4167   -1.6917    0.0000 N   0  0  0  0  0  0  0  0  0  0  0  0
    7.0042   -1.6875    0.0000 O   0  0  0  0  0  0  0  0  0  0  0  0
    7.0042   -4.1792    0.0000 N   0  0  0  0  0  0  0  0  0  0  0  0
    4.1292   -2.5167    0.0000 Cl  0  0  0  0  0  0  0  0  0  0  0  0
    9.1417   -2.9292    0.0000 N   0  0  0  0  0  0  0  0  0  0  0  0
    3.4250   -3.6625    0.0000 C   0  0  0  0  0  0  0  0  0  0  0  0
    4.2250   -4.9250    0.0000 C   0  0  0  0  0  0  0  0  0  0  0  0
    3.6000   -5.5042    0.0000 C   0  0  0  0  0  0  0  0  0  0  0  0
    2.7042   -3.7750    0.0000 C   0  0  0  0  0  0  0  0  0  0  0  0
    2.3167   -4.5292    0.0000 C   0  0  0  0  0  0  0  0  0  0  0  0
    2.7167   -5.3292    0.0000 C   0  0  0  0  0  0  0  0  0  0  0  0
  2  6  2  0
  3  1  2  0
  4  2  1  0
  5  1  1  0
  6  1  1  0
  7  3  1  0
  8  5  1  0
  9  8  1  0
 10  4  1  0
 11  9  2  0
 12  5  2  0
 13  6  1  0
 14  7  1  0
 15  9  1  0
 16 10  1  0
 17 10  1  0
 18 17  1  0
 19 16  1  0
 20 19  1  0
 21 18  1  0
  4  7  2  0
 21 20  1  0
M  END
>  <ID>  (2079) 


>  <MOLENAME>  (2079) 
N.N-HEXAMETHYLENEAMILORIDE

>  <therap>  (2079) 
Na/H+ antiporter inhibitor, diuretic

>  <ref>  (2079) 
Biochim Biophys Acta 944: 383 (1988)

>  <cas#>  (2079) 
nan

>  <source>  (2079) 
synthetic

>  <status>  (2079) 
experimental

>  <tradename>  (2079) 
nan

>  <SMILES>  (2079) 
N=C(N)NC(=O)c1nc(Cl)c(N2CCCCCC2)nc1N

>  <standardized_failed>  (2079) 
False

$$$$

     RDKit          2D

 30 29  0  0  0  0  0  0  0  0999 V2000
    3.2167   -1.3250    0.0000 S   0  0  0  0  0  0  0  0  0  0  0  0
    0.3667   -2.1542    0.0000 S   0  0  0  0  0  0  0  0  0  0  0  0
    0.3667   -1.3292    0.0000 C   0  0  0  0  0  0  0  0  0  0  0  0
    3.2250   -2.1500    0.0000 C   0  0  0  0  0  0  0  0  0  0  0  0
   -1.0583    1.1458    0.0000 C   0  0  0  0  0  0  0  0  0  0  0  0
    5.3667   -4.2125    0.0000 C   0  0  0  0  0  0  0  0  0  0  0  0
    1.8000   -2.1542    0.0000 C   0  0  0  0  0  0  0  0  0  0  0  0
    1.8000   -1.3292    0.0000 C   0  0  0  0  0  0  0  0  0  0  0  0
    3.2125   -0.5000    0.0000 O   0  0  0  0  0  0  0  0  0  0  0  0
    0.3625   -2.9792    0.0000 O   0  0  0  0  0  0  0  0  0  0  0  0
    3.9375   -2.5542    0.0000 C   0  0  0  0  0  0  0  0  0  0  0  0
   -0.3458   -0.9167    0.0000 C   0  0  0  0  0  0  0  0  0  0  0  0
    1.0792   -0.9167    0.0000 C   0  0  0  0  0  0  0  0  0  0  0  0
    2.5167   -2.5667    0.0000 C   0  0  0  0  0  0  0  0  0  0  0  0
    1.1625   -2.3667    0.0000 O   0  0  0  0  0  0  0  0  0  0  0  0
    4.0125   -1.1042    0.0000 O   0  0  0  0  0  0  0  0  0  0  0  0
    2.4167   -1.1042    0.0000 O   0  0  0  0  0  0  0  0  0  0  0  0
   -0.4333   -2.3667    0.0000 O   0  0  0  0  0  0  0  0  0  0  0  0
   -1.0583    0.3208    0.0000 N   0  0  0  0  0  0  0  0  0  0  0  0
    4.6542   -3.8000    0.0000 N   0  0  0  0  0  0  0  0  0  0  0  0
   -1.0333    1.9375    0.0000 S   0  0  0  0  0  0  0  0  0  0  0  0
    6.0792   -4.6250    0.0000 S   0  0  0  0  0  0  0  0  0  0  0  0
   -0.3458   -0.0917    0.0000 C   0  0  0  0  0  0  0  0  0  0  0  0
    3.9417   -3.3875    0.0000 C   0  0  0  0  0  0  0  0  0  0  0  0
    2.5042   -3.3917    0.0000 C   0  0  0  0  0  0  0  0  0  0  0  0
    1.0792   -0.0917    0.0000 C   0  0  0  0  0  0  0  0  0  0  0  0
    3.2292   -3.8000    0.0000 C   0  0  0  0  0  0  0  0  0  0  0  0
    0.3667    0.3208    0.0000 C   0  0  0  0  0  0  0  0  0  0  0  0
    4.6167   -0.3417    0.0000 Na  0  0  0  0  0 15  0  0  0  0  0  0
   -0.0958   -4.2750    0.0000 Na  0  0  0  0  0 15  0  0  0  0  0  0
  2  3  1  0
  3 13  2  0
  4  1  1  0
  5 19  2  0
  6 20  2  0
  7 14  1  0
  8  7  2  0
  9  1  1  0
 10  2  1  0
 11  4  2  0
 12  3  1  0
 13  8  1  0
 14  4  1  0
 15  2  2  0
 16  1  2  0
 17  1  2  0
 18  2  2  0
 19 23  1  0
 20 24  1  0
 21  5  2  0
 22  6  2  0
 23 28  1  0
 24 11  1  0
 25 14  2  0
 26 13  1  0
 27 25  1  0
 28 26  2  0
 24 27  2  0
 12 23  2  0
M  CHG  4   9  -1  10  -1  29   1  30   1
M  END
>  <ID>  (2080) 


>  <MOLENAME>  (2080) 
4.4'-DIISOTHIOCYANOSTILBENE-2.2'-SUFONIC ACID SODIUM SALT

>  <therap>  (2080) 
ATP transport inhibitor, anion transport inhibitor, antiulcer

>  <ref>  (2080) 
EMBO J 12:69 (1993); Biochem Biophys Res Commun 207:375 (1995)

>  <cas#>  (2080) 
67483-13-0

>  <source>  (2080) 
synthetic; DIDS

>  <status>  (2080) 
undetermined activity

>  <tradename>  (2080) 
nan

>  <SMILES>  (2080) 
O=S(=O)(O)c1cc(N=C=S)ccc1/C=C/c1c(S(=O)(=O)O)cc(N=C=S)cc1

>  <standardized_failed>  (2080) 
False

$$$$

     RDKit          2D

 15 16  0  0  0  0  0  0  0  0999 V2000
    4.3375   -1.2750    0.0000 C   0  0  0  0  0  0  0  0  0  0  0  0
    4.0833   -0.4917    0.0000 C   0  0  0  0  0  0  0  0  0  0  0  0
    3.0042   -1.2792    0.0000 N   0  0  0  0  0  0  0  0  0  0  0  0
    3.6750   -1.7583    0.0000 N   0  0  0  0  0  0  0  0  0  0  0  0
    3.2583   -0.4958    0.0000 C   0  0  0  0  0  0  0  0  0  0  0  0
    5.1250   -1.5292    0.0000 O   0  0  0  0  0  0  0  0  0  0  0  0
    3.6792   -2.5833    0.0000 C   0  0  0  0  0  0  0  0  0  0  0  0
    4.5667    0.1750    0.0000 O   0  0  0  0  0  0  0  0  0  0  0  0
    2.2208   -1.5375    0.0000 C   0  0  0  0  0  0  0  0  0  0  0  0
    2.7708    0.1708    0.0000 C   0  0  0  0  0  0  0  0  0  0  0  0
    2.9667   -3.0000    0.0000 C   0  0  0  0  0  0  0  0  0  0  0  0
    4.3958   -2.9958    0.0000 C   0  0  0  0  0  0  0  0  0  0  0  0
    4.3958   -3.8250    0.0000 C   0  0  0  0  0  0  0  0  0  0  0  0
    2.9667   -3.8250    0.0000 C   0  0  0  0  0  0  0  0  0  0  0  0
    3.6792   -4.2375    0.0000 C   0  0  0  0  0  0  0  0  0  0  0  0
  2  1  1  0
  3  4  1  0
  4  1  1  0
  5  2  2  0
  6  1  2  0
  7  4  1  0
  8  2  1  0
  9  3  1  0
 10  5  1  0
 11  7  2  0
 12  7  1  0
 13 12  2  0
 14 11  1  0
 15 14  2  0
  3  5  1  0
 13 15  1  0
M  END
>  <ID>  (2081) 


>  <MOLENAME>  (2081) 
4-HYDROXYANTIPYRINE

>  <therap>  (2081) 
analgesic

>  <ref>  (2081) 
nan

>  <cas#>  (2081) 
1672-63-5

>  <source>  (2081) 
synthetic

>  <status>  (2081) 
experimental

>  <tradename>  (2081) 
nan

>  <SMILES>  (2081) 
Cc1c(O)c(=O)n(-c2ccccc2)n1C

>  <standardized_failed>  (2081) 
False

$$$$

     RDKit          2D

 29 33  0  0  0  0  0  0  0  0999 V2000
    5.6167   -3.3917    0.0000 C   0  0  0  0  0  0  0  0  0  0  0  0
    6.4292   -3.4667    0.0000 C   0  0  0  0  0  0  0  0  0  0  0  0
    6.1542   -2.1667    0.0000 C   0  0  0  0  0  0  0  0  0  0  0  0
    5.4417   -2.5792    0.0000 C   0  0  0  0  0  0  0  0  0  0  0  0
    6.7667   -2.7292    0.0000 O   0  0  0  0  0  0  0  0  0  0  0  0
    5.4417   -0.9292    0.0000 C   0  0  0  0  0  0  0  0  0  0  0  0
    6.1542   -1.3417    0.0000 C   0  0  0  0  0  0  0  0  0  0  0  0
    6.8667   -0.9292    0.0000 N   0  0  0  0  0  0  0  0  0  0  0  0
    5.0042   -3.9417    0.0000 C   0  0  0  0  0  0  0  0  0  0  0  0
    5.4417   -0.1042    0.0000 C   0  0  0  0  0  0  0  0  0  0  0  0
    4.7292   -1.3417    0.0000 C   0  0  0  0  0  0  0  0  0  0  0  0
    4.0042   -0.9292    0.0000 C   0  0  0  0  0  0  0  0  0  0  0  0
    4.0042   -0.1042    0.0000 C   0  0  0  0  0  0  0  0  0  0  0  0
    4.6542   -2.3292    0.0000 C   0  0  0  0  0  0  0  0  0  0  0  0
    4.7292    0.3083    0.0000 C   0  0  0  0  0  0  0  0  0  0  0  0
    4.2167   -3.6917    0.0000 C   0  0  0  0  0  0  0  0  0  0  0  0
    5.0042   -4.7667    0.0000 O   0  0  0  0  0  0  0  0  0  0  0  0
    6.8542   -4.1792    0.0000 O   0  0  0  0  0  0  0  0  0  0  0  0
    3.2292   -1.1792    0.0000 O   0  0  0  0  0  0  0  0  0  0  0  0
    3.2292    0.1458    0.0000 O   0  0  0  0  0  0  0  0  0  0  0  0
    6.8667   -0.1042    0.0000 C   0  0  0  0  0  0  0  0  0  0  0  0
    3.7292   -4.3667    0.0000 O   0  0  0  0  0  0  0  0  0  0  0  0
    4.2167   -5.0167    0.0000 C   0  0  0  0  0  0  0  0  0  0  0  0
    2.7417   -0.5167    0.0000 C   0  0  0  0  0  0  0  0  0  0  0  0
    6.1542    0.3083    0.0000 C   0  0  0  0  0  0  0  0  0  0  0  0
    4.0417   -2.8792    0.0000 C   0  0  0  0  0  0  0  0  0  0  0  0
    8.7125   -0.9667    0.0000 I   0  0  0  0  0  0  0  0  0  0  0  0
    7.8042   -0.9042    0.0000 C   0  0  0  0  0  0  0  0  0  0  0  0
    7.1792   -1.7792    0.0000 C   0  0  0  0  0  0  0  0  0  0  0  0
  2  1  1  0
  3  4  1  0
  4  1  2  0
  5  2  1  0
  6  7  1  0
  7  3  1  6
  7  8  1  0
  9  1  1  0
 10  6  2  0
 11  6  1  0
 12 11  2  0
 13 12  1  0
 14  4  1  0
 15 10  1  0
 16  9  2  0
 17  9  1  0
 18  2  2  0
 19 12  1  0
 20 13  1  0
 21  8  1  0
 22 16  1  0
 23 17  1  0
 24 19  1  0
 25 21  1  0
 26 16  1  0
 28  8  1  0
 29  8  1  0
  5  3  1  0
 22 23  1  0
 14 26  2  0
 10 25  1  0
 15 13  2  0
 20 24  1  0
M  CHG  2   8   1  27  -1
M  END
>  <ID>  (2082) 


>  <MOLENAME>  (2082) 
BICUCULLINE(-) METHIODIDE

>  <therap>  (2082) 
GABAa antagonist

>  <ref>  (2082) 
Brain Res 465:243 (1989); TiPS 20:268 (1999)

>  <cas#>  (2082) 
55950-07-7

>  <source>  (2082) 
semisynthetic; water soluble derivative of bicuculline (01500821)

>  <status>  (2082) 
experimental

>  <tradename>  (2082) 
nan

>  <SMILES>  (2082) 
C[N+]1(C)CCc2c(cc3OCOc3c2)[C@H]1C1OC(=O)c2c1ccc1c2OCO1

>  <standardized_failed>  (2082) 
False

$$$$

     RDKit          2D

  8  7  0  0  0  0  0  0  0  0999 V2000
    2.5417   -1.2083    0.0000 C   0  0  0  0  0  0  0  0  0  0  0  0
    3.3000   -0.8833    0.0000 C   0  0  0  0  0  0  0  0  0  0  0  0
    3.2542   -0.0625    0.0000 O   0  0  0  0  0  0  0  0  0  0  0  0
    1.8250   -0.7875    0.0000 C   0  0  0  0  0  0  0  0  0  0  0  0
    2.5708   -2.0167    0.0000 N   0  0  0  0  0  0  0  0  0  0  0  0
    4.0125   -1.2917    0.0000 O   0  0  0  0  0  0  0  0  0  0  0  0
    1.8875    0.0458    0.0000 O   0  0  0  0  0  0  0  0  0  0  0  0
    1.0625   -1.1125    0.0000 C   0  0  0  0  0  0  0  0  0  0  0  0
  2  1  1  0
  3  2  2  0
  1  4  1  0
  1  5  1  1
  6  2  1  0
  4  7  1  0
  4  8  1  1
M  END
>  <ID>  (2083) 


>  <MOLENAME>  (2083) 
THREONINE (L)

>  <therap>  (2083) 
amino acid, nutrient

>  <ref>  (2083) 
nan

>  <cas#>  (2083) 
72-19-5

>  <source>  (2083) 
widespread in nature

>  <status>  (2083) 
USP, JAN, INN

>  <tradename>  (2083) 
nan

>  <SMILES>  (2083) 
C[C@@H](O)[C@H](N)C(=O)O

>  <standardized_failed>  (2083) 
False

$$$$

     RDKit          2D

 35 39  0  0  0  0  0  0  0  0999 V2000
    1.4792   -3.4500    0.0000 C   0  0  0  0  0  0  0  0  0  0  0  0
    2.1917   -3.8667    0.0000 C   0  0  0  0  0  0  0  0  0  0  0  0
    2.1917   -2.2042    0.0000 O   0  0  0  0  0  0  0  0  0  0  0  0
    1.4792   -2.6250    0.0000 C   0  0  0  0  0  0  0  0  0  0  0  0
    2.9125   -3.4542    0.0000 C   0  0  0  0  0  0  0  0  0  0  0  0
    2.9125   -2.6250    0.0000 C   0  0  0  0  0  0  0  0  0  0  0  0
    5.7625   -2.6417    0.0000 O   0  0  0  0  0  0  0  0  0  0  0  0
    0.7667   -3.8667    0.0000 C   0  0  0  0  0  0  0  0  0  0  0  0
    6.4875   -2.2375    0.0000 C   0  0  0  0  0  0  0  0  0  0  0  0
    5.7750   -0.9875    0.0000 O   0  0  0  0  0  0  0  0  0  0  0  0
    5.0500   -2.2292    0.0000 C   0  0  0  0  0  0  0  0  0  0  0  0
    6.4917   -1.4042    0.0000 C   0  0  0  0  0  0  0  0  0  0  0  0
    3.6292   -2.2167    0.0000 C   0  0  0  0  0  0  0  0  0  0  0  0
    7.1917   -2.6542    0.0000 C   0  0  0  0  0  0  0  0  0  0  0  0
    5.0542   -1.3917    0.0000 C   0  0  0  0  0  0  0  0  0  0  0  0
    0.7667   -2.2125    0.0000 C   0  0  0  0  0  0  0  0  0  0  0  0
    4.3417   -2.6292    0.0000 C   0  0  0  0  0  0  0  0  0  0  0  0
    0.0542   -3.4542    0.0000 C   0  0  0  0  0  0  0  0  0  0  0  0
    7.9042   -2.2500    0.0000 C   0  0  0  0  0  0  0  0  0  0  0  0
    8.6167   -2.6667    0.0000 C   0  0  0  0  0  0  0  0  0  0  0  0
    2.1917   -4.6917    0.0000 O   0  0  0  0  0  0  0  0  0  0  0  0
    0.0542   -2.6250    0.0000 C   0  0  0  0  0  0  0  0  0  0  0  0
    8.6125   -3.4917    0.0000 C   0  0  0  0  0  0  0  0  0  0  0  0
    3.6292   -1.3917    0.0000 C   0  0  0  0  0  0  0  0  0  0  0  0
    7.1792   -3.4792    0.0000 C   0  0  0  0  0  0  0  0  0  0  0  0
    4.3417   -0.9792    0.0000 C   0  0  0  0  0  0  0  0  0  0  0  0
    7.8917   -3.9000    0.0000 C   0  0  0  0  0  0  0  0  0  0  0  0
    3.6250   -3.8667    0.0000 O   0  0  0  0  0  0  0  0  0  0  0  0
    0.7667   -4.6917    0.0000 O   0  0  0  0  0  0  0  0  0  0  0  0
    9.3292   -2.2542    0.0000 O   0  0  0  0  0  0  0  0  0  0  0  0
    7.2125   -1.0042    0.0000 C   0  0  0  0  0  0  0  0  0  0  0  0
   -0.6583   -2.2167    0.0000 O   0  0  0  0  0  0  0  0  0  0  0  0
    9.3250   -3.9125    0.0000 O   0  0  0  0  0  0  0  0  0  0  0  0
    7.9167   -1.4167    0.0000 O   0  0  0  0  0  0  0  0  0  0  0  0
   10.0417   -2.6750    0.0000 C   0  0  0  0  0  0  0  0  0  0  0  0
  2  1  1  0
  3  4  1  0
  4  1  2  0
  5  2  1  0
  6  3  1  6
  7 11  1  0
  8  1  1  0
  9  7  1  1
 10 15  1  0
 11 17  2  0
 12 10  1  0
  6 13  1  0
  9 14  1  0
 15 26  2  0
 16  4  1  0
 17 13  1  0
 18  8  2  0
 19 14  2  0
 20 19  1  0
 21  2  2  0
 22 18  1  0
 23 27  1  0
 24 13  2  0
 25 14  1  0
 26 24  1  0
 27 25  2  0
  5 28  1  1
 29  8  1  0
 30 20  1  0
 12 31  1  6
 32 22  1  0
 33 23  1  0
 34 31  1  0
 35 30  1  0
 16 22  2  0
  5  6  1  0
 15 11  1  0
  9 12  1  0
 20 23  2  0
M  END
>  <ID>  (2084) 


>  <MOLENAME>  (2084) 
SILIBININ

>  <therap>  (2084) 
hepatoprotective agent, antioxidant

>  <ref>  (2084) 
Arzneim-Forsch 20: 1248 (1970); Chem Ber 108: 790, 1482 (1975); Fitoterapia 6: 3 (1995)

>  <cas#>  (2084) 
22888-70-6

>  <source>  (2084) 
Silybum marianum

>  <status>  (2084) 
INN

>  <tradename>  (2084) 
nan

>  <SMILES>  (2084) 
COc1c(O)ccc([C@H]2Oc3cc([C@H]4Oc5c(C(=O)[C@@H]4O)c(O)cc(O)c5)ccc3O[C@@H]2CO)c1

>  <standardized_failed>  (2084) 
False

$$$$

     RDKit          2D

 18 19  0  0  0  0  0  0  0  0999 V2000
    6.3667   -3.5167    0.0000 C   0  0  0  0  0  0  0  0  0  0  0  0
    5.9167   -2.9542    0.0000 C   0  0  0  0  0  0  0  0  0  0  0  0
    7.1917   -3.5167    0.0000 C   0  0  0  0  0  0  0  0  0  0  0  0
    8.8417   -3.5167    0.0000 C   0  0  0  0  0  0  0  0  0  0  0  0
    8.4292   -4.2292    0.0000 C   0  0  0  0  0  0  0  0  0  0  0  0
    8.4292   -2.8000    0.0000 C   0  0  0  0  0  0  0  0  0  0  0  0
    5.0917   -2.9542    0.0000 C   0  0  0  0  0  0  0  0  0  0  0  0
    7.6042   -4.2292    0.0000 C   0  0  0  0  0  0  0  0  0  0  0  0
    7.6042   -2.8042    0.0000 C   0  0  0  0  0  0  0  0  0  0  0  0
    3.4542   -2.9542    0.0000 C   0  0  0  0  0  0  0  0  0  0  0  0
    8.8417   -2.0917    0.0000 O   0  0  0  0  0  0  0  0  0  0  0  0
    8.8417   -4.9417    0.0000 O   0  0  0  0  0  0  0  0  0  0  0  0
    4.6792   -2.2417    0.0000 C   0  0  0  0  0  0  0  0  0  0  0  0
    4.6792   -3.6667    0.0000 C   0  0  0  0  0  0  0  0  0  0  0  0
    3.8542   -2.2417    0.0000 C   0  0  0  0  0  0  0  0  0  0  0  0
    3.8542   -3.6667    0.0000 C   0  0  0  0  0  0  0  0  0  0  0  0
    2.6292   -2.9542    0.0000 O   0  0  0  0  0  0  0  0  0  0  0  0
    2.2167   -2.2417    0.0000 C   0  0  0  0  0  0  0  0  0  0  0  0
  2  1  2  0
  3  1  1  0
  4  6  2  0
  5  8  2  0
  6  9  1  0
  7  2  1  0
  8  3  1  0
  9  3  2  0
 10 16  2  0
 11  6  1  0
 12  5  1  0
 13  7  1  0
 14  7  2  0
 15 13  2  0
 16 14  1  0
 17 10  1  0
 18 17  1  0
  5  4  1  0
 15 10  1  0
M  END
>  <ID>  (2085) 


>  <MOLENAME>  (2085) 
RESVERATROL 4'-METHYL ETHER

>  <therap>  (2085) 
nan

>  <ref>  (2085) 
Chem Pharm Bull 25:2300 (1977); Phytochemistry 32:1083 (1993)

>  <cas#>  (2085) 
33626-08-3

>  <source>  (2085) 
derivative

>  <status>  (2085) 
undetermined activity

>  <tradename>  (2085) 
nan

>  <SMILES>  (2085) 
COc1ccc(/C=C/c2cc(O)cc(O)c2)cc1

>  <standardized_failed>  (2085) 
False

$$$$

     RDKit          2D

 11 10  0  0  0  0  0  0  0  0999 V2000
    4.9458   -1.6625    0.0000 S   0  0  0  0  0  0  0  0  0  0  0  0
    7.7167   -2.2125    0.0000 C   0  0  0  0  0  0  0  0  0  0  0  0
    3.8417   -1.6500    0.0000 N   0  0  0  0  0  0  0  0  0  0  0  0
    5.1708   -0.8667    0.0000 O   0  0  0  0  0  0  0  0  0  0  0  0
    6.2500   -2.0208    0.0000 C   0  0  0  0  0  0  0  0  0  0  0  0
    5.4625   -2.3000    0.0000 C   0  0  0  0  0  0  0  0  0  0  0  0
    6.9375   -2.4875    0.0000 C   0  0  0  0  0  0  0  0  0  0  0  0
    7.7167   -1.3875    0.0000 O   0  0  0  0  0  0  0  0  0  0  0  0
    8.3917   -2.6875    0.0000 O   0  0  0  0  0  0  0  0  0  0  0  0
    6.9208   -3.2958    0.0000 N   0  0  0  0  0  0  0  0  0  0  0  0
    4.7292   -2.4542    0.0000 C   0  0  0  0  0  0  0  0  0  0  0  0
  2  7  1  0
  3  1  2  0
  4  1  2  0
  5  6  1  0
  6  1  1  0
  7  5  1  0
  8  2  2  0
  9  2  1  0
  7 10  1  1
 11  1  1  0
M  END
>  <ID>  (2086) 


>  <MOLENAME>  (2086) 
METHIONINE SULFOXIMINE (L)

>  <therap>  (2086) 
glutamine synthetase inhibitor, ornithine decarboxylase enhancer

>  <ref>  (2086) 
nan

>  <cas#>  (2086) 
15985-39-4

>  <source>  (2086) 
synthetic

>  <status>  (2086) 
experimental

>  <tradename>  (2086) 
nan

>  <SMILES>  (2086) 
CS(=N)(=O)CC[C@H](N)C(=O)O

>  <standardized_failed>  (2086) 
False

$$$$

     RDKit          2D

  5  4  0  0  0  0  0  0  0  0999 V2000
    1.7667   -0.6667    0.0000 As  0  0  0  0  0  5  0  0  0  0  0  0
    1.7667    0.1583    0.0000 O   0  0  0  0  0  0  0  0  0  0  0  0
    2.5917   -0.6667    0.0000 O   0  0  0  0  0  0  0  0  0  0  0  0
    1.7625   -1.4917    0.0000 C   0  0  0  0  0  0  0  0  0  0  0  0
    0.9417   -0.6667    0.0000 C   0  0  0  0  0  0  0  0  0  0  0  0
  2  1  2  0
  3  1  1  0
  4  1  1  0
  5  1  1  0
M  END
>  <ID>  (2087) 


>  <MOLENAME>  (2087) 
CACODYLIC ACID

>  <therap>  (2087) 
antieczema, dermatologic, herbicide

>  <ref>  (2087) 
nan

>  <cas#>  (2087) 
75-60-5

>  <source>  (2087) 
synthetic

>  <status>  (2087) 
experimental

>  <tradename>  (2087) 
nan

>  <SMILES>  (2087) 
C[As](C)(=O)O

>  <standardized_failed>  (2087) 
False

$$$$

     RDKit          2D

 29 28  0  0  0  0  0  0  0  0999 V2000
    6.5417   -2.0292    0.0000 P   0  0  0  0  0  0  0  0  0  0  0  0
    6.5417   -2.8542    0.0000 O   0  0  0  0  0  0  0  0  0  0  0  0
    6.5292   -1.1667    0.0000 O   0  0  0  0  0  0  0  0  0  0  0  0
    9.4917   -1.5917    0.0000 N   0  0  0  0  0  0  0  0  0  0  0  0
    7.3542   -2.0042    0.0000 O   0  0  0  0  0  0  0  0  0  0  0  0
    5.5500   -2.0417    0.0000 O   0  0  0  0  0  0  0  0  0  0  0  0
   -1.5750   -2.0417    0.0000 C   0  0  0  0  0  0  0  0  0  0  0  0
   -0.8625   -1.6292    0.0000 C   0  0  0  0  0  0  0  0  0  0  0  0
    8.0667   -1.5917    0.0000 C   0  0  0  0  0  0  0  0  0  0  0  0
    8.7792   -2.0042    0.0000 C   0  0  0  0  0  0  0  0  0  0  0  0
   10.2042   -1.1792    0.0000 C   0  0  0  0  0  0  0  0  0  0  0  0
   10.2042   -2.0042    0.0000 C   0  0  0  0  0  0  0  0  0  0  0  0
    9.4917   -0.7667    0.0000 C   0  0  0  0  0  0  0  0  0  0  0  0
   -0.1500   -2.0417    0.0000 C   0  0  0  0  0  0  0  0  0  0  0  0
   -2.2875   -1.6292    0.0000 C   0  0  0  0  0  0  0  0  0  0  0  0
    4.8375   -1.6292    0.0000 C   0  0  0  0  0  0  0  0  0  0  0  0
    0.5625   -1.6292    0.0000 C   0  0  0  0  0  0  0  0  0  0  0  0
   -2.2875   -0.8042    0.0000 C   0  0  0  0  0  0  0  0  0  0  0  0
    4.1250   -2.0417    0.0000 C   0  0  0  0  0  0  0  0  0  0  0  0
    1.2667   -0.3792    0.0000 C   0  0  0  0  0  0  0  0  0  0  0  0
    0.5542   -0.7917    0.0000 C   0  0  0  0  0  0  0  0  0  0  0  0
    1.2750   -2.0417    0.0000 C   0  0  0  0  0  0  0  0  0  0  0  0
    1.9875   -1.6292    0.0000 C   0  0  0  0  0  0  0  0  0  0  0  0
   -1.5833   -0.3917    0.0000 C   0  0  0  0  0  0  0  0  0  0  0  0
   -0.8708   -0.8000    0.0000 C   0  0  0  0  0  0  0  0  0  0  0  0
   -0.1583   -0.3875    0.0000 C   0  0  0  0  0  0  0  0  0  0  0  0
    2.7000   -2.0417    0.0000 C   0  0  0  0  0  0  0  0  0  0  0  0
    3.4125   -1.6292    0.0000 C   0  0  0  0  0  0  0  0  0  0  0  0
    1.9792   -0.7917    0.0000 C   0  0  0  0  0  0  0  0  0  0  0  0
  2  1  1  0
  3  1  2  0
  4 10  1  0
  5  1  1  0
  6  1  1  0
  7  8  2  0
  8 14  1  0
  9  5  1  0
 10  9  1  0
 11  4  1  0
 12  4  1  0
 13  4  1  0
 14 17  1  0
 15  7  1  0
 16  6  1  0
 17 22  1  0
 18 15  1  0
 19 16  1  0
 20 21  1  0
 21 26  1  0
 22 23  1  0
 23 27  1  0
 24 18  1  0
 25 24  1  0
 26 25  1  0
 27 28  1  0
 28 19  1  0
 29 20  1  0
M  CHG  2   2  -1   4   1
M  END
>  <ID>  (2088) 


>  <MOLENAME>  (2088) 
ELAIDYLPHOSPHOCHOLINE

>  <therap>  (2088) 
antineoplastic

>  <ref>  (2088) 
nan

>  <cas#>  (2088) 
nan

>  <source>  (2088) 
synthetic

>  <status>  (2088) 
experimental

>  <tradename>  (2088) 
nan

>  <SMILES>  (2088) 
CCCCCCCC/C=C/CCCCCCCCOP(=O)([O-])OCC[N+](C)(C)C

>  <standardized_failed>  (2088) 
False

$$$$

     RDKit          2D

 14 15  0  0  0  0  0  0  0  0999 V2000
    6.5625   -4.3500    0.0000 N   0  0  0  0  0  0  0  0  0  0  0  0
    6.5542   -2.6917    0.0000 N   0  0  0  0  0  0  0  0  0  0  0  0
    7.2667   -3.1042    0.0000 C   0  0  0  0  0  0  0  0  0  0  0  0
    7.2750   -3.9292    0.0000 C   0  0  0  0  0  0  0  0  0  0  0  0
    5.8417   -3.1125    0.0000 C   0  0  0  0  0  0  0  0  0  0  0  0
    5.8417   -3.9375    0.0000 C   0  0  0  0  0  0  0  0  0  0  0  0
    5.1292   -4.3542    0.0000 C   0  0  0  0  0  0  0  0  0  0  0  0
    5.1292   -2.7000    0.0000 C   0  0  0  0  0  0  0  0  0  0  0  0
    4.4167   -3.1125    0.0000 C   0  0  0  0  0  0  0  0  0  0  0  0
    4.4167   -3.9417    0.0000 C   0  0  0  0  0  0  0  0  0  0  0  0
    7.9917   -4.3417    0.0000 O   0  0  0  0  0  0  0  0  0  0  0  0
    7.9792   -2.6875    0.0000 O   0  0  0  0  0  0  0  0  0  0  0  0
    3.7042   -2.7042    0.0000 Cl  0  0  0  0  0  0  0  0  0  0  0  0
    3.7000   -4.3542    0.0000 Cl  0  0  0  0  0  0  0  0  0  0  0  0
  2  5  1  0
  3  4  1  0
  4  1  2  0
  5  6  2  0
  6  1  1  0
  7  6  1  0
  8  5  1  0
  9 10  1  0
 10  7  2  0
 11  4  1  0
 12  3  1  0
 13  9  1  0
 14 10  1  0
  2  3  2  0
  9  8  2  0
M  END
>  <ID>  (2089) 


>  <MOLENAME>  (2089) 
2.3-DIHYDROXY-6.7-DICHLOROQUINOXALINE

>  <therap>  (2089) 
NMDA receptor antagonist (gly)

>  <ref>  (2089) 
J Neurochem 54: 699 (1990)

>  <cas#>  (2089) 
nan

>  <source>  (2089) 
synthetic

>  <status>  (2089) 
experimental

>  <tradename>  (2089) 
nan

>  <SMILES>  (2089) 
Oc1nc2c(cc(Cl)c(Cl)c2)nc1O

>  <standardized_failed>  (2089) 
False

$$$$

     RDKit          2D

 15 15  0  0  0  0  0  0  0  0999 V2000
    0.6542    0.8833    0.0000 C   0  0  0  0  0  0  0  0  0  0  0  0
    0.3750   -0.4167    0.0000 N   0  0  0  0  0  0  0  0  0  0  0  0
    0.0417    0.3250    0.0000 C   0  0  0  0  0  0  0  0  0  0  0  0
    1.3667    0.4708    0.0000 C   0  0  0  0  0  0  0  0  0  0  0  0
   -0.7750    0.4833    0.0000 C   0  0  0  0  0  0  0  0  0  0  0  0
    1.1917   -0.3375    0.0000 C   0  0  0  0  0  0  0  0  0  0  0  0
    2.1292    0.8083    0.0000 C   0  0  0  0  0  0  0  0  0  0  0  0
    0.5792    1.7083    0.0000 C   0  0  0  0  0  0  0  0  0  0  0  0
    1.0667    2.3375    0.0000 C   0  0  0  0  0  0  0  0  0  0  0  0
   -1.3083   -0.1417    0.0000 O   0  0  0  0  0  0  0  0  0  0  0  0
    0.7667    3.1250    0.0000 O   0  0  0  0  0  0  0  0  0  0  0  0
    2.2292    1.6333    0.0000 C   0  0  0  0  0  0  0  0  0  0  0  0
   -1.0500    1.2583    0.0000 O   0  0  0  0  0  0  0  0  0  0  0  0
    1.8917    2.5333    0.0000 O   0  0  0  0  0  0  0  0  0  0  0  0
    2.8042    0.3083    0.0000 C   0  0  0  0  0  0  0  0  0  0  0  0
  2  3  1  0
  3  1  1  0
  4  1  1  0
  5  3  1  0
  6  4  1  0
  7  4  1  0
  8  1  1  0
  9  8  1  0
 10  5  2  0
 11  9  2  0
 12  7  2  0
 13  5  1  0
 14  9  1  0
 15  7  1  0
  6  2  1  0
M  END
>  <ID>  (2090) 


>  <MOLENAME>  (2090) 
KAINIC ACID

>  <therap>  (2090) 
glutamate receptor agonist, anthelmintic

>  <ref>  (2090) 
Tetrahedron (1996), 52(12), 4149-74; Prog. Retinal Res. (1983), 2, 249-66; Mol. Neurobiol. (2005), 31(1-3), 3-16,

>  <cas#>  (2090) 
487-79-6

>  <source>  (2090) 
Digenia simplex

>  <status>  (2090) 
INN, JAN

>  <tradename>  (2090) 
nan

>  <SMILES>  (2090) 
C=C(C)C1CNC(C(=O)O)C1CC(=O)O

>  <standardized_failed>  (2090) 
False

$$$$

     RDKit          2D

 10 11  0  0  0  0  0  0  0  0999 V2000
    3.9875   -1.0292    0.0000 C   0  0  0  0  0  0  0  0  0  0  0  0
    4.7667   -2.1042    0.0000 N   0  0  0  0  0  0  0  0  0  0  0  0
    3.9875   -1.8542    0.0000 C   0  0  0  0  0  0  0  0  0  0  0  0
    5.2542   -1.4417    0.0000 C   0  0  0  0  0  0  0  0  0  0  0  0
    4.7667   -0.7667    0.0000 C   0  0  0  0  0  0  0  0  0  0  0  0
    3.2667   -0.6167    0.0000 C   0  0  0  0  0  0  0  0  0  0  0  0
    3.2667    0.2083    0.0000 O   0  0  0  0  0  0  0  0  0  0  0  0
    2.5542   -1.8542    0.0000 C   0  0  0  0  0  0  0  0  0  0  0  0
    3.2667   -2.2667    0.0000 C   0  0  0  0  0  0  0  0  0  0  0  0
    2.5542   -1.0292    0.0000 C   0  0  0  0  0  0  0  0  0  0  0  0
  2  3  1  0
  3  1  2  0
  4  5  2  0
  5  1  1  0
  6  1  1  0
  7  6  1  0
  8 10  1  0
  9  3  1  0
 10  6  2  0
  2  4  1  0
  8  9  2  0
M  END
>  <ID>  (2091) 


>  <MOLENAME>  (2091) 
4-HYDROXYINDOLE

>  <therap>  (2091) 
inhibitor of Amyloid-beta deposition

>  <ref>  (2091) 
Biochemistry 45:4727 (2006)

>  <cas#>  (2091) 
2380-94-1

>  <source>  (2091) 
nan

>  <status>  (2091) 
experimental

>  <tradename>  (2091) 
nan

>  <SMILES>  (2091) 
Oc1cccc2c1cc[nH]2

>  <standardized_failed>  (2091) 
False

$$$$

     RDKit          2D

  4  2  0  0  0  0  0  0  0  0999 V2000
    2.9542   -4.2167    0.0000 N   0  0  0  0  0  0  0  0  0  0  0  0
    1.2417   -3.8667    0.0000 Cl  0  0  0  0  0  0  0  0  0  0  0  0
    3.6667   -3.8042    0.0000 O   0  0  0  0  0  0  0  0  0  0  0  0
    4.3792   -4.2167    0.0000 C   0  0  0  0  0  0  0  0  0  0  0  0
  3  1  1  0
  4  3  1  0
M  END
>  <ID>  (2092) 


>  <MOLENAME>  (2092) 
METHOXYAMINE HYDROCHLORIDE

>  <therap>  (2092) 
hydroxymethyltransferase inhibitor

>  <ref>  (2092) 
nan

>  <cas#>  (2092) 
593-56-6

>  <source>  (2092) 
synthetic

>  <status>  (2092) 
experimental

>  <tradename>  (2092) 
nan

>  <SMILES>  (2092) 
CON

>  <standardized_failed>  (2092) 
False

$$$$

     RDKit          2D

 14 14  0  0  0  0  0  0  0  0999 V2000
    5.4000   -4.9417    0.0000 C   0  0  0  0  0  0  0  0  0  0  0  0
    6.2042   -4.5292    0.0000 C   0  0  0  0  0  0  0  0  0  0  0  0
    4.6875   -4.5292    0.0000 C   0  0  0  0  0  0  0  0  0  0  0  0
    6.2042   -3.7417    0.0000 O   0  0  0  0  0  0  0  0  0  0  0  0
    5.8542   -5.7167    0.0000 N   0  0  0  0  0  0  0  0  0  0  0  0
    4.6875   -3.7042    0.0000 C   0  0  0  0  0  0  0  0  0  0  0  0
    6.8917   -4.9667    0.0000 O   0  0  0  0  0  0  0  0  0  0  0  0
    4.6875   -2.0500    0.0000 C   0  0  0  0  0  0  0  0  0  0  0  0
    5.4042   -3.2917    0.0000 C   0  0  0  0  0  0  0  0  0  0  0  0
    3.9750   -3.2917    0.0000 C   0  0  0  0  0  0  0  0  0  0  0  0
    5.4042   -2.4625    0.0000 C   0  0  0  0  0  0  0  0  0  0  0  0
    3.9750   -2.4625    0.0000 C   0  0  0  0  0  0  0  0  0  0  0  0
    4.6875   -1.2250    0.0000 O   0  0  0  0  0  0  0  0  0  0  0  0
    4.7042   -5.6792    0.0000 C   0  0  0  0  0  0  0  0  0  0  0  0
  2  1  1  0
  3  1  1  0
  4  2  2  0
  1  5  1  0
  6  3  1  0
  7  2  1  0
  8 12  1  0
  9  6  2  0
 10  6  1  0
 11  9  1  0
 12 10  2  0
 13  8  1  0
  1 14  1  6
 11  8  2  0
M  END
>  <ID>  (2093) 


>  <MOLENAME>  (2093) 
alpha-METHYL-L-TYROSINE

>  <therap>  (2093) 
tyrosine hydroxylase inhibitor

>  <ref>  (2093) 
Life Sci 17: 1777 (1975)

>  <cas#>  (2093) 
672-87-7

>  <source>  (2093) 
synthetic

>  <status>  (2093) 
experimental

>  <tradename>  (2093) 
nan

>  <SMILES>  (2093) 
C[C@](N)(Cc1ccc(O)cc1)C(=O)O

>  <standardized_failed>  (2093) 
False

$$$$

     RDKit          2D

 32 34  0  0  0  0  0  0  0  0999 V2000
    1.9792   -2.6917    0.0000 C   0  0  0  0  0  0  0  0  0  0  0  0
    1.9792   -1.8667    0.0000 C   0  0  0  0  0  0  0  0  0  0  0  0
    0.5500   -2.6917    0.0000 N   0  0  0  0  0  0  0  0  0  0  0  0
    1.2667   -1.4542    0.0000 N   0  0  0  0  0  0  0  0  0  0  0  0
    1.2667   -3.1042    0.0000 C   0  0  0  0  0  0  0  0  0  0  0  0
    0.5500   -1.8667    0.0000 C   0  0  0  0  0  0  0  0  0  0  0  0
    2.6917   -3.1042    0.0000 N   0  0  0  0  0  0  0  0  0  0  0  0
    2.6917   -1.4542    0.0000 N   0  0  0  0  0  0  0  0  0  0  0  0
    7.7042   -4.3500    0.0000 C   0  0  0  0  0  0  0  0  0  0  0  0
    3.4042   -2.6917    0.0000 C   0  0  0  0  0  0  0  0  0  0  0  0
    8.4167   -3.9375    0.0000 N   0  0  0  0  0  0  0  0  0  0  0  0
    3.4042   -1.8667    0.0000 C   0  0  0  0  0  0  0  0  0  0  0  0
    9.1375   -5.1792    0.0000 C   0  0  0  0  0  0  0  0  0  0  0  0
    9.1375   -4.3500    0.0000 C   0  0  0  0  0  0  0  0  0  0  0  0
    6.9875   -3.9292    0.0000 C   0  0  0  0  0  0  0  0  0  0  0  0
    1.2667   -3.9292    0.0000 O   0  0  0  0  0  0  0  0  0  0  0  0
   11.2792   -3.9375    0.0000 C   0  0  0  0  0  0  0  0  0  0  0  0
    7.7042   -5.1792    0.0000 O   0  0  0  0  0  0  0  0  0  0  0  0
    9.8542   -5.5917    0.0000 O   0  0  0  0  0  0  0  0  0  0  0  0
    4.8417   -2.6917    0.0000 N   0  0  0  0  0  0  0  0  0  0  0  0
   -0.1708   -1.4500    0.0000 N   0  0  0  0  0  0  0  0  0  0  0  0
   12.0000   -4.3500    0.0000 O   0  0  0  0  0  0  0  0  0  0  0  0
    9.8500   -3.9375    0.0000 C   0  0  0  0  0  0  0  0  0  0  0  0
    4.1292   -3.1042    0.0000 C   0  0  0  0  0  0  0  0  0  0  0  0
    6.9875   -3.1042    0.0000 C   0  0  0  0  0  0  0  0  0  0  0  0
    6.2750   -4.3417    0.0000 C   0  0  0  0  0  0  0  0  0  0  0  0
    5.5542   -3.1042    0.0000 C   0  0  0  0  0  0  0  0  0  0  0  0
   10.5667   -4.3500    0.0000 C   0  0  0  0  0  0  0  0  0  0  0  0
    8.4250   -5.5917    0.0000 O   0  0  0  0  0  0  0  0  0  0  0  0
   11.2792   -3.1042    0.0000 O   0  0  0  0  0  0  0  0  0  0  0  0
    6.2750   -2.6917    0.0000 C   0  0  0  0  0  0  0  0  0  0  0  0
    5.5542   -3.9292    0.0000 C   0  0  0  0  0  0  0  0  0  0  0  0
  2  1  2  0
  3  5  1  0
  4  2  1  0
  5  1  1  0
  6  3  2  0
  7  1  1  0
  8  2  1  0
  9 15  1  0
 10  7  1  0
 11  9  1  0
 12 10  2  0
 14 13  1  0
 14 11  1  0
 15 26  2  0
 16  5  2  0
 17 28  1  0
 18  9  2  0
 19 13  2  0
 20 24  1  0
 21  6  1  0
 22 17  2  0
 14 23  1  6
 24 10  1  0
 25 31  2  0
 26 32  1  0
 27 20  1  0
 28 23  1  0
 29 13  1  0
 30 17  1  0
 31 27  1  0
 32 27  2  0
  8 12  1  0
  6  4  1  0
 15 25  1  0
M  END
>  <ID>  (2094) 


>  <MOLENAME>  (2094) 
DIHYDROFOLIC ACID

>  <therap>  (2094) 
antidote to methotrexate toxicity

>  <ref>  (2094) 
Nature 188:231 (1960); Compr Biochem 21:111 (1971); J Chem Soc(Perkin 1) 1985:1349; Tetrahedron 42:117 (1986)

>  <cas#>  (2094) 
4033-27-6

>  <source>  (2094) 
dihydrofolate reductase product

>  <status>  (2094) 
experimental

>  <tradename>  (2094) 
nan

>  <SMILES>  (2094) 
Nc1nc(=O)c2c(NC=C(CNc3ccc(C(=O)N[C@H](CCC(=O)O)C(=O)O)cc3)N2)[nH]1

>  <standardized_failed>  (2094) 
False

$$$$

     RDKit          2D

 18 20  0  0  0  0  0  0  0  0999 V2000
    2.5000    0.2875    0.0000 O   0  0  0  0  0  0  0  0  0  0  0  0
    2.4917   -1.3625    0.0000 C   0  0  0  0  0  0  0  0  0  0  0  0
    1.7792   -0.9500    0.0000 C   0  0  0  0  0  0  0  0  0  0  0  0
    1.7875   -0.1250    0.0000 C   0  0  0  0  0  0  0  0  0  0  0  0
    3.2125   -0.1292    0.0000 C   0  0  0  0  0  0  0  0  0  0  0  0
    3.2125   -0.9542    0.0000 C   0  0  0  0  0  0  0  0  0  0  0  0
    3.9292    0.2750    0.0000 C   0  0  0  0  0  0  0  0  0  0  0  0
    2.4875   -2.1875    0.0000 O   0  0  0  0  0  0  0  0  0  0  0  0
    3.9292    1.1000    0.0000 C   0  0  0  0  0  0  0  0  0  0  0  0
    4.6417   -0.1500    0.0000 C   0  0  0  0  0  0  0  0  0  0  0  0
    5.3667    1.0875    0.0000 C   0  0  0  0  0  0  0  0  0  0  0  0
    5.3542    0.2625    0.0000 C   0  0  0  0  0  0  0  0  0  0  0  0
    4.6542    1.5000    0.0000 C   0  0  0  0  0  0  0  0  0  0  0  0
    6.0792    1.4875    0.0000 O   0  0  0  0  0  0  0  0  0  0  0  0
    1.0750   -1.3625    0.0000 C   0  0  0  0  0  0  0  0  0  0  0  0
    1.0750    0.2875    0.0000 C   0  0  0  0  0  0  0  0  0  0  0  0
    0.3667   -0.9500    0.0000 C   0  0  0  0  0  0  0  0  0  0  0  0
    0.3667   -0.1250    0.0000 C   0  0  0  0  0  0  0  0  0  0  0  0
  2  6  1  0
  3  4  2  0
  4  1  1  0
  5  1  1  0
  6  5  1  0
  7  5  1  0
  8  2  2  0
  9  7  2  0
 10  7  1  0
 11 12  1  0
 12 10  2  0
 13  9  1  0
 14 11  1  0
 15  3  1  0
 16  4  1  0
 17 18  1  0
 18 16  2  0
  3  2  1  0
 13 11  2  0
 15 17  2  0
M  END
>  <ID>  (2095) 


>  <MOLENAME>  (2095) 
4'-HYDROXYFLAVANONE

>  <therap>  (2095) 
nan

>  <ref>  (2095) 
nan

>  <cas#>  (2095) 
nan

>  <source>  (2095) 
semisynthetic

>  <status>  (2095) 
undetermined activity

>  <tradename>  (2095) 
nan

>  <SMILES>  (2095) 
O=C1CC(c2ccc(O)cc2)Oc2c1cccc2

>  <standardized_failed>  (2095) 
False

$$$$

     RDKit          2D

 27 29  0  0  0  0  0  0  0  0999 V2000
    6.0500   -2.6917    0.0000 C   0  0  0  0  0  0  0  0  0  0  0  0
    7.3125   -3.1000    0.0000 C   0  0  0  0  0  0  0  0  0  0  0  0
    6.0542   -3.5125    0.0000 C   0  0  0  0  0  0  0  0  0  0  0  0
    8.1375   -3.0917    0.0000 S   0  0  0  0  0  0  0  0  0  0  0  0
    6.8292   -2.4375    0.0000 C   0  0  0  0  0  0  0  0  0  0  0  0
    5.3375   -2.2792    0.0000 C   0  0  0  0  0  0  0  0  0  0  0  0
    4.6292   -3.5167    0.0000 C   0  0  0  0  0  0  0  0  0  0  0  0
    4.6167   -2.6917    0.0000 C   0  0  0  0  0  0  0  0  0  0  0  0
    6.8292   -3.7625    0.0000 O   0  0  0  0  0  0  0  0  0  0  0  0
    5.3417   -3.9292    0.0000 C   0  0  0  0  0  0  0  0  0  0  0  0
    3.9167   -3.9375    0.0000 C   0  0  0  0  0  0  0  0  0  0  0  0
    3.9167   -4.7542    0.0000 C   0  0  0  0  0  0  0  0  0  0  0  0
    5.3417   -4.7542    0.0000 C   0  0  0  0  0  0  0  0  0  0  0  0
    4.6292   -5.1667    0.0000 C   0  0  0  0  0  0  0  0  0  0  0  0
    3.2042   -5.1667    0.0000 C   0  0  0  0  0  0  0  0  0  0  0  0
    8.9625   -3.0917    0.0000 O   0  0  0  0  0  0  0  0  0  0  0  0
    8.5500   -3.8125    0.0000 O   0  0  0  0  0  0  0  0  0  0  0  0
    8.5500   -2.3792    0.0000 O   0  0  0  0  0  0  0  0  0  0  0  0
    5.3292   -1.4542    0.0000 O   0  0  0  0  0  0  0  0  0  0  0  0
    3.9042   -2.2875    0.0000 O   0  0  0  0  0  0  0  0  0  0  0  0
    7.0792   -1.6542    0.0000 C   0  0  0  0  0  0  0  0  0  0  0  0
    3.2125   -3.5250    0.0000 C   0  0  0  0  0  0  0  0  0  0  0  0
   10.1167   -3.1792    0.0000 Na  0  0  0  0  0 15  0  0  0  0  0  0
    2.4917   -4.7500    0.0000 C   0  0  0  0  0  0  0  0  0  0  0  0
    2.5000   -3.9292    0.0000 C   0  0  0  0  0  0  0  0  0  0  0  0
    3.7875   -5.7500    0.0000 C   0  0  0  0  0  0  0  0  0  0  0  0
    2.6167   -5.7500    0.0000 C   0  0  0  0  0  0  0  0  0  0  0  0
  2  5  2  0
  3  1  2  0
  4  2  1  0
  5  1  1  0
  6  1  1  0
  7  8  1  0
  8  6  1  0
  9  3  1  0
 10  3  1  0
 11  7  2  0
 12 11  1  0
 13 10  2  0
 14 13  1  0
 15 12  1  0
 16  4  1  0
 17  4  2  0
 18  4  2  0
 19  6  2  0
 20  8  2  0
 21  5  1  0
 22 11  1  0
 24 25  1  0
 25 22  1  0
 26 15  1  0
 27 15  1  0
  7 10  1  0
  2  9  1  0
 12 14  2  0
 15 24  1  0
M  CHG  2  16  -1  23   1
M  END
>  <ID>  (2096) 


>  <MOLENAME>  (2096) 
TANSHINONE IIA SULFONATE SODIUM

>  <therap>  (2096) 
free radical scavenger

>  <ref>  (2096) 
Biochem Pharmacol 46:2327 (1993); 65:51 (2003); Biochem Mol Biol Int 38:1171 (1996)

>  <cas#>  (2096) 
nan

>  <source>  (2096) 
semisynthetic

>  <status>  (2096) 
experimental

>  <tradename>  (2096) 
nan

>  <SMILES>  (2096) 
Cc1c(S(=O)(=O)O)oc2c1C(=O)C(=O)c1c3CCCC(C)(C)c3ccc-21

>  <standardized_failed>  (2096) 
False

$$$$

     RDKit          2D

 17 18  0  0  0  0  0  0  0  0999 V2000
    3.4417  -17.3625    0.0000 C   0  0  0  0  0  0  0  0  0  0  0  0
    2.7292  -16.9542    0.0000 C   0  0  0  0  0  0  0  0  0  0  0  0
    4.1542  -16.9500    0.0000 C   0  0  0  0  0  0  0  0  0  0  0  0
    2.7250  -16.1292    0.0000 O   0  0  0  0  0  0  0  0  0  0  0  0
    4.1500  -16.1250    0.0000 O   0  0  0  0  0  0  0  0  0  0  0  0
    2.0167  -17.3667    0.0000 C   0  0  0  0  0  0  0  0  0  0  0  0
    4.8667  -17.3542    0.0000 C   0  0  0  0  0  0  0  0  0  0  0  0
    4.8625  -18.1792    0.0000 C   0  0  0  0  0  0  0  0  0  0  0  0
    5.5667  -16.9417    0.0000 C   0  0  0  0  0  0  0  0  0  0  0  0
    2.0167  -18.1917    0.0000 C   0  0  0  0  0  0  0  0  0  0  0  0
    1.3000  -16.9542    0.0000 C   0  0  0  0  0  0  0  0  0  0  0  0
    6.2792  -17.3500    0.0000 C   0  0  0  0  0  0  0  0  0  0  0  0
    0.5875  -17.3667    0.0000 C   0  0  0  0  0  0  0  0  0  0  0  0
    1.3000  -18.6042    0.0000 C   0  0  0  0  0  0  0  0  0  0  0  0
    5.5750  -18.5875    0.0000 C   0  0  0  0  0  0  0  0  0  0  0  0
    0.5875  -18.1917    0.0000 C   0  0  0  0  0  0  0  0  0  0  0  0
    6.2875  -18.1750    0.0000 C   0  0  0  0  0  0  0  0  0  0  0  0
  2  1  1  0
  3  1  1  0
  4  2  2  0
  5  3  2  0
  6  2  1  0
  7  3  1  0
  8  7  2  0
  9  7  1  0
 10  6  2  0
 11  6  1  0
 12  9  2  0
 13 11  2  0
 14 10  1  0
 15  8  1  0
 16 13  1  0
 17 12  1  0
 17 15  2  0
 14 16  2  0
M  END
>  <ID>  (2097) 


>  <MOLENAME>  (2097) 
DIBENZOYLMETHANE

>  <therap>  (2097) 
antineoplastic

>  <ref>  (2097) 
Cancer Lett 168:125 (2001); Carcinogenesis 19:1697 (1998)

>  <cas#>  (2097) 
120-46-7

>  <source>  (2097) 
Glycyrrhiza glabra

>  <status>  (2097) 
experimental

>  <tradename>  (2097) 
nan

>  <SMILES>  (2097) 
O=C(CC(=O)c1ccccc1)c1ccccc1

>  <standardized_failed>  (2097) 
False

$$$$

     RDKit          2D

 21 22  0  0  0  0  0  0  0  0999 V2000
    3.8417  -17.6375    0.0000 C   0  0  0  0  0  0  0  0  0  0  0  0
    3.1292  -18.0500    0.0000 C   0  0  0  0  0  0  0  0  0  0  0  0
    0.2750  -18.0542    0.0000 C   0  0  0  0  0  0  0  0  0  0  0  0
    2.4167  -17.6417    0.0000 C   0  0  0  0  0  0  0  0  0  0  0  0
    0.2750  -18.8792    0.0000 C   0  0  0  0  0  0  0  0  0  0  0  0
    0.9875  -17.6417    0.0000 C   0  0  0  0  0  0  0  0  0  0  0  0
    3.8375  -16.8125    0.0000 O   0  0  0  0  0  0  0  0  0  0  0  0
    1.7042  -18.0542    0.0000 C   0  0  0  0  0  0  0  0  0  0  0  0
    0.9875  -19.2917    0.0000 C   0  0  0  0  0  0  0  0  0  0  0  0
    4.5542  -18.0417    0.0000 O   0  0  0  0  0  0  0  0  0  0  0  0
   -0.4375  -17.6417    0.0000 O   0  0  0  0  0  0  0  0  0  0  0  0
    1.7042  -18.8792    0.0000 C   0  0  0  0  0  0  0  0  0  0  0  0
   -0.4458  -19.2917    0.0000 O   0  0  0  0  0  0  0  0  0  0  0  0
    5.2667  -17.6292    0.0000 C   0  0  0  0  0  0  0  0  0  0  0  0
    6.6917  -17.6292    0.0000 C   0  0  0  0  0  0  0  0  0  0  0  0
    5.9792  -18.0417    0.0000 C   0  0  0  0  0  0  0  0  0  0  0  0
    7.4042  -18.0417    0.0000 C   0  0  0  0  0  0  0  0  0  0  0  0
    6.6875  -16.8042    0.0000 C   0  0  0  0  0  0  0  0  0  0  0  0
    7.3917  -16.3917    0.0000 C   0  0  0  0  0  0  0  0  0  0  0  0
    8.1167  -17.6292    0.0000 C   0  0  0  0  0  0  0  0  0  0  0  0
    8.1125  -16.8042    0.0000 C   0  0  0  0  0  0  0  0  0  0  0  0
  2  1  1  0
  3  6  2  0
  4  2  2  0
  5  9  2  0
  6  8  1  0
  7  1  2  0
  8  4  1  0
  9 12  1  0
 10  1  1  0
 11  3  1  0
 12  8  2  0
 13  5  1  0
 14 10  1  0
 15 16  1  0
 16 14  1  0
 17 15  2  0
 18 15  1  0
 19 18  2  0
 20 17  1  0
 21 19  1  0
  5  3  1  0
 21 20  2  0
M  END
>  <ID>  (2098) 


>  <MOLENAME>  (2098) 
PHENETHYL CAFFEATE (CAPE)

>  <therap>  (2098) 
antineoplastic, antiinflammatory, immunomodulator, NFkB blocker

>  <ref>  (2098) 
PNAS 93:9090 (1996)

>  <cas#>  (2098) 
104594-70-9

>  <source>  (2098) 
synthetic

>  <status>  (2098) 
experimental

>  <tradename>  (2098) 
nan

>  <SMILES>  (2098) 
O=C(/C=C/c1ccc(O)c(O)c1)OCCc1ccccc1

>  <standardized_failed>  (2098) 
False

$$$$

     RDKit          2D

 21 23  0  0  0  0  0  0  0  0999 V2000
    2.1167   -0.3417    0.0000 N   0  0  0  0  0  0  0  0  0  0  0  0
    2.1167   -1.1792    0.0000 C   0  0  0  0  0  0  0  0  0  0  0  0
    1.4042    0.0583    0.0000 C   0  0  0  0  0  0  0  0  0  0  0  0
    1.4000   -1.5792    0.0000 C   0  0  0  0  0  0  0  0  0  0  0  0
    0.6917   -0.3417    0.0000 C   0  0  0  0  0  0  0  0  0  0  0  0
    0.6917   -1.1667    0.0000 C   0  0  0  0  0  0  0  0  0  0  0  0
    1.4042    0.8833    0.0000 O   0  0  0  0  0  0  0  0  0  0  0  0
    2.8292   -1.5917    0.0000 O   0  0  0  0  0  0  0  0  0  0  0  0
    4.9750   -0.3542    0.0000 C   0  0  0  0  0  0  0  0  0  0  0  0
    5.6875    0.0583    0.0000 O   0  0  0  0  0  0  0  0  0  0  0  0
   -0.0208   -1.5792    0.0000 C   0  0  0  0  0  0  0  0  0  0  0  0
    2.8292    0.0583    0.0000 C   0  0  0  0  0  0  0  0  0  0  0  0
    1.4125   -2.4042    0.0000 C   0  0  0  0  0  0  0  0  0  0  0  0
   -0.0208    0.0708    0.0000 C   0  0  0  0  0  0  0  0  0  0  0  0
    4.9750   -1.1792    0.0000 O   0  0  0  0  0  0  0  0  0  0  0  0
    3.5417   -0.3542    0.0000 C   0  0  0  0  0  0  0  0  0  0  0  0
    4.2625    0.0583    0.0000 C   0  0  0  0  0  0  0  0  0  0  0  0
    0.6917   -2.8167    0.0000 C   0  0  0  0  0  0  0  0  0  0  0  0
   -0.7333   -0.3417    0.0000 C   0  0  0  0  0  0  0  0  0  0  0  0
   -0.7333   -1.1667    0.0000 C   0  0  0  0  0  0  0  0  0  0  0  0
   -0.0208   -2.4042    0.0000 C   0  0  0  0  0  0  0  0  0  0  0  0
  2  1  1  0
  3  1  1  0
  4  2  1  0
  5  3  1  0
  6  5  2  0
  7  3  2  0
  8  2  2  0
  9 17  1  0
 10  9  2  0
 11  6  1  0
 12  1  1  0
 13  4  2  0
 14  5  1  0
 15  9  1  0
 16 12  1  0
 17 16  1  0
 18 13  1  0
 19 14  2  0
 20 19  1  0
 21 11  1  0
  4  6  1  0
 20 11  2  0
 18 21  2  0
M  END
>  <ID>  (2099) 


>  <MOLENAME>  (2099) 
4-NAPHTHALIMIDOBUTYRIC ACID

>  <therap>  (2099) 
aldose reductase inhibitor

>  <ref>  (2099) 
nan

>  <cas#>  (2099) 
nan

>  <source>  (2099) 
synthetic

>  <status>  (2099) 
experimental

>  <tradename>  (2099) 
nan

>  <SMILES>  (2099) 
O=C(O)CCCN1C(=O)c2c3c(cccc3ccc2)C1=O

>  <standardized_failed>  (2099) 
False

$$$$

     RDKit          2D

 14 15  0  0  0  0  0  0  0  0999 V2000
    2.5000   -0.9542    0.0000 C   0  0  0  0  0  0  0  0  0  0  0  0
    1.7875   -0.5417    0.0000 C   0  0  0  0  0  0  0  0  0  0  0  0
    1.7875    0.2833    0.0000 C   0  0  0  0  0  0  0  0  0  0  0  0
    1.0750   -0.9542    0.0000 C   0  0  0  0  0  0  0  0  0  0  0  0
    2.5000    0.6958    0.0000 O   0  0  0  0  0  0  0  0  0  0  0  0
    3.2167    0.2833    0.0000 C   0  0  0  0  0  0  0  0  0  0  0  0
    3.2167   -0.5417    0.0000 C   0  0  0  0  0  0  0  0  0  0  0  0
    1.0750    0.6958    0.0000 C   0  0  0  0  0  0  0  0  0  0  0  0
    0.3542   -0.5417    0.0000 C   0  0  0  0  0  0  0  0  0  0  0  0
    0.3542    0.2833    0.0000 C   0  0  0  0  0  0  0  0  0  0  0  0
    3.9292    0.7000    0.0000 O   0  0  0  0  0  0  0  0  0  0  0  0
    1.0667   -1.7792    0.0000 O   0  0  0  0  0  0  0  0  0  0  0  0
    2.4917   -1.7792    0.0000 C   0  0  0  0  0  0  0  0  0  0  0  0
   -0.3583    0.6958    0.0000 O   0  0  0  0  0  0  0  0  0  0  0  0
  2  1  1  0
  3  2  2  0
  4  2  1  0
  5  6  1  0
  6  7  1  0
  7  1  2  0
  8  3  1  0
  9  4  2  0
 10  9  1  0
 11  6  2  0
 12  4  1  0
 13  1  1  0
 14 10  1  0
  5  3  1  0
  8 10  2  0
M  END
>  <ID>  (2100) 


>  <MOLENAME>  (2100) 
5.7-DIHYDROXY-4-METHYLCOUMARIN

>  <therap>  (2100) 
nan

>  <ref>  (2100) 
nan

>  <cas#>  (2100) 
nan

>  <source>  (2100) 
semisynthetic

>  <status>  (2100) 
undetermined activity

>  <tradename>  (2100) 
nan

>  <SMILES>  (2100) 
Cc1cc(=O)oc2c1c(O)cc(O)c2

>  <standardized_failed>  (2100) 
False

$$$$

     RDKit          2D

  5  4  0  0  0  0  0  0  0  0999 V2000
    3.5417   -2.6500    0.0000 S   0  0  0  0  0  0  0  0  0  0  0  0
    2.9542   -2.0542    0.0000 O   0  0  0  0  0  0  0  0  0  0  0  0
    4.1292   -2.0542    0.0000 O   0  0  0  0  0  0  0  0  0  0  0  0
    2.8292   -3.0625    0.0000 C   0  0  0  0  0  0  0  0  0  0  0  0
    4.2542   -3.0625    0.0000 C   0  0  0  0  0  0  0  0  0  0  0  0
  2  1  2  0
  3  1  2  0
  4  1  1  0
  5  1  1  0
M  END
>  <ID>  (2101) 


>  <MOLENAME>  (2101) 
DIMETHYLSULFONE

>  <therap>  (2101) 
antiinflammatory, antiproliferative, antiparasitic

>  <ref>  (2101) 
Acta Chem Scand 8:703 (1954);  Proc Soc Exper Biol Med 183:227 (1986); In Vitro Cell Dev Biol 23:422 (1987); J Agr Food Chem 40:1425 (1992); Urol Clin North Am 21:85 (1994)

>  <cas#>  (2101) 
67-71-0

>  <source>  (2101) 
Cladonia deformis and Equisetum spp

>  <status>  (2101) 
agricultural use

>  <tradename>  (2101) 
nan

>  <SMILES>  (2101) 
CS(C)(=O)=O

>  <standardized_failed>  (2101) 
False

$$$$

     RDKit          2D

 14 14  0  0  0  0  0  0  0  0999 V2000
    7.2042   -3.5167    0.0000 C   0  0  0  0  0  0  0  0  0  0  0  0
    6.6167   -3.8667    0.0000 C   0  0  0  0  0  0  0  0  0  0  0  0
    7.2042   -2.8542    0.0000 O   0  0  0  0  0  0  0  0  0  0  0  0
    6.6167   -4.5417    0.0000 N   0  0  0  0  0  0  0  0  0  0  0  0
    7.7792   -3.8542    0.0000 O   0  0  0  0  0  0  0  0  0  0  0  0
    5.4167   -3.9042    0.0000 O   0  0  0  0  0  0  0  0  0  0  0  0
    6.0292   -3.5167    0.0000 C   0  0  0  0  0  0  0  0  0  0  0  0
    4.1875   -3.9042    0.0000 C   0  0  0  0  0  0  0  0  0  0  0  0
    4.7667   -3.5667    0.0000 C   0  0  0  0  0  0  0  0  0  0  0  0
    4.1917   -4.5792    0.0000 C   0  0  0  0  0  0  0  0  0  0  0  0
    3.6000   -3.5667    0.0000 C   0  0  0  0  0  0  0  0  0  0  0  0
    3.6042   -4.9167    0.0000 C   0  0  0  0  0  0  0  0  0  0  0  0
    3.0167   -3.9167    0.0000 C   0  0  0  0  0  0  0  0  0  0  0  0
    3.0167   -4.5917    0.0000 C   0  0  0  0  0  0  0  0  0  0  0  0
  2  1  1  0
  3  1  2  0
  4  2  1  0
  5  1  1  0
  6  7  1  0
  7  2  1  0
  8  9  1  0
  9  6  1  0
 10  8  2  0
 11  8  1  0
 12 10  1  0
 13 11  2  0
 14 13  1  0
 12 14  2  0
M  END
>  <ID>  (2102) 


>  <MOLENAME>  (2102) 
O-BENZYL-l-SERINE

>  <therap>  (2102) 
nan

>  <ref>  (2102) 
nan

>  <cas#>  (2102) 
nan

>  <source>  (2102) 
synthetic

>  <status>  (2102) 
undetermined activity

>  <tradename>  (2102) 
nan

>  <SMILES>  (2102) 
NC(COCc1ccccc1)C(=O)O

>  <standardized_failed>  (2102) 
False

$$$$

     RDKit          2D

 16 13  0  0  0  0  0  0  0  0999 V2000
   -0.0583   -1.4500    0.0000 C   0  0  0  0  0  0  0  0  0  0  0  0
    2.0042   -0.7375    0.0000 C   0  0  0  0  0  0  0  0  0  0  0  0
    0.7667   -1.4500    0.0000 N   0  0  0  0  0  0  0  0  0  0  0  0
    1.1792   -0.7375    0.0000 N   0  0  0  0  0  0  0  0  0  0  0  0
    2.8375   -0.7375    0.0000 C   0  0  0  0  0  0  0  0  0  0  0  0
   -0.8833   -1.4500    0.0000 C   0  0  0  0  0  0  0  0  0  0  0  0
    3.2500   -1.4500    0.0000 N   0  0  0  0  0  0  0  0  0  0  0  0
   -1.2958   -2.1625    0.0000 N   0  0  0  0  0  0  0  0  0  0  0  0
   -1.2958   -0.7375    0.0000 N   0  0  0  0  0  0  0  0  0  0  0  0
    3.2500   -0.0167    0.0000 N   0  0  0  0  0  0  0  0  0  0  0  0
    4.1167   -0.8042    0.0000 Cl  0  0  0  0  0  0  0  0  0  0  0  0
   -2.6250   -1.4917    0.0000 Cl  0  0  0  0  0  0  0  0  0  0  0  0
    2.0042    0.0875    0.0000 C   0  0  0  0  0  0  0  0  0  0  0  0
   -0.0583   -0.6250    0.0000 C   0  0  0  0  0  0  0  0  0  0  0  0
    2.0042   -1.5625    0.0000 C   0  0  0  0  0  0  0  0  0  0  0  0
   -0.0583   -2.2750    0.0000 C   0  0  0  0  0  0  0  0  0  0  0  0
  2  4  1  0
  3  1  1  0
  4  3  2  0
  5  2  1  0
  6  1  1  0
  7  5  2  0
  8  6  2  0
  9  6  1  0
 10  5  1  0
 13  2  1  0
 14  1  1  0
 15  2  1  0
 16  1  1  0
M  END
>  <ID>  (2103) 


>  <MOLENAME>  (2103) 
2.2'-AZO-bis-2-AMINOPROPANE

>  <therap>  (2103) 
free radical initiator, apoptosis inducer

>  <ref>  (2103) 
Biochemistry 36:7706 (1997); 40:1719 (2001); Biochem Biophys Acta 1543:69 (2000)

>  <cas#>  (2103) 
2997-92-4

>  <source>  (2103) 
synthetic

>  <status>  (2103) 
undetermined activity

>  <tradename>  (2103) 
nan

>  <SMILES>  (2103) 
CC(C)(/N=N/C(C)(C)C(=N)N)C(=N)N

>  <standardized_failed>  (2103) 
False

$$$$

     RDKit          2D

 17 18  0  0  0  0  0  0  0  0999 V2000
   -0.8208    0.8333    0.0000 C   0  0  0  0  0  0  0  0  0  0  0  0
   -0.4042    1.5500    0.0000 C   0  0  0  0  0  0  0  0  0  0  0  0
   -0.4083    0.1208    0.0000 C   0  0  0  0  0  0  0  0  0  0  0  0
    0.4167    1.5500    0.0000 O   0  0  0  0  0  0  0  0  0  0  0  0
    1.6500    0.8333    0.0000 C   0  0  0  0  0  0  0  0  0  0  0  0
    0.8250    0.8292    0.0000 C   0  0  0  0  0  0  0  0  0  0  0  0
    2.0667    0.1208    0.0000 C   0  0  0  0  0  0  0  0  0  0  0  0
    0.4208    0.1208    0.0000 C   0  0  0  0  0  0  0  0  0  0  0  0
   -0.8167    2.2625    0.0000 O   0  0  0  0  0  0  0  0  0  0  0  0
   -0.8208   -0.5958    0.0000 O   0  0  0  0  0  0  0  0  0  0  0  0
    2.8917    0.1208    0.0000 C   0  0  0  0  0  0  0  0  0  0  0  0
    3.3000    0.8333    0.0000 C   0  0  0  0  0  0  0  0  0  0  0  0
    3.3000   -0.5875    0.0000 C   0  0  0  0  0  0  0  0  0  0  0  0
   -1.6458   -0.5958    0.0000 C   0  0  0  0  0  0  0  0  0  0  0  0
    4.1250    0.8375    0.0000 C   0  0  0  0  0  0  0  0  0  0  0  0
    4.1250   -0.5875    0.0000 C   0  0  0  0  0  0  0  0  0  0  0  0
    4.5375    0.1250    0.0000 C   0  0  0  0  0  0  0  0  0  0  0  0
  2  1  1  0
  3  1  2  0
  4  2  1  0
  5  6  1  0
  6  8  1  0
  7  5  2  0
  8  3  1  0
  9  2  2  0
 10  3  1  0
 11  7  1  0
 12 11  2  0
 13 11  1  0
 14 10  1  0
 15 12  1  0
 16 13  2  0
 17 16  1  0
  4  6  1  0
 15 17  2  0
M  END
>  <ID>  (2104) 


>  <MOLENAME>  (2104) 
KAWAIN

>  <therap>  (2104) 
nan

>  <ref>  (2104) 
Tet Letts 25:4059 (1984)

>  <cas#>  (2104) 
3155-48-4

>  <source>  (2104) 
Piper methysticum

>  <status>  (2104) 
experimental

>  <tradename>  (2104) 
nan

>  <SMILES>  (2104) 
COC1=CC(=O)OC(/C=C/c2ccccc2)C1

>  <standardized_failed>  (2104) 
False

$$$$

     RDKit          2D

 30 34  0  0  0  0  0  0  0  0999 V2000
    6.7667   -3.5667    0.0000 C   0  0  0  0  0  0  0  0  0  0  0  0
    6.7625   -2.7375    0.0000 C   0  0  0  0  0  0  0  0  0  0  0  0
    6.0542   -3.9792    0.0000 C   0  0  0  0  0  0  0  0  0  0  0  0
    5.3375   -3.5792    0.0000 C   0  0  0  0  0  0  0  0  0  0  0  0
    4.6167   -4.0000    0.0000 C   0  0  0  0  0  0  0  0  0  0  0  0
    6.0417   -2.3292    0.0000 O   0  0  0  0  0  0  0  0  0  0  0  0
    7.4750   -2.3167    0.0000 C   0  0  0  0  0  0  0  0  0  0  0  0
    8.1917   -2.7375    0.0000 C   0  0  0  0  0  0  0  0  0  0  0  0
    5.3292   -2.7417    0.0000 C   0  0  0  0  0  0  0  0  0  0  0  0
    7.4792   -3.9750    0.0000 C   0  0  0  0  0  0  0  0  0  0  0  0
    3.8917   -3.5792    0.0000 C   0  0  0  0  0  0  0  0  0  0  0  0
    7.4667   -1.4917    0.0000 C   0  0  0  0  0  0  0  0  0  0  0  0
    8.9042   -2.3250    0.0000 O   0  0  0  0  0  0  0  0  0  0  0  0
    8.1917   -3.5542    0.0000 C   0  0  0  0  0  0  0  0  0  0  0  0
    4.6167   -4.8292    0.0000 C   0  0  0  0  0  0  0  0  0  0  0  0
    3.8875   -2.7500    0.0000 O   0  0  0  0  0  0  0  0  0  0  0  0
    3.1750   -4.0000    0.0000 C   0  0  0  0  0  0  0  0  0  0  0  0
    3.9000   -5.2500    0.0000 C   0  0  0  0  0  0  0  0  0  0  0  0
    3.1667   -4.8292    0.0000 C   0  0  0  0  0  0  0  0  0  0  0  0
    8.1917   -1.0792    0.0000 C   0  0  0  0  0  0  0  0  0  0  0  0
    8.9042   -1.4917    0.0000 C   0  0  0  0  0  0  0  0  0  0  0  0
    4.6042   -2.3292    0.0000 C   0  0  0  0  0  0  0  0  0  0  0  0
    6.0625   -4.8042    0.0000 O   0  0  0  0  0  0  0  0  0  0  0  0
    7.4917   -4.8042    0.0000 O   0  0  0  0  0  0  0  0  0  0  0  0
    3.9042   -6.0792    0.0000 O   0  0  0  0  0  0  0  0  0  0  0  0
    2.4542   -5.2542    0.0000 O   0  0  0  0  0  0  0  0  0  0  0  0
    9.7375   -1.5042    0.0000 C   0  0  0  0  0  0  0  0  0  0  0  0
    9.1292   -0.7042    0.0000 C   0  0  0  0  0  0  0  0  0  0  0  0
    4.6250   -6.4792    0.0000 C   0  0  0  0  0  0  0  0  0  0  0  0
    1.7417   -4.8417    0.0000 C   0  0  0  0  0  0  0  0  0  0  0  0
  2  1  2  0
  3  1  1  0
  4  3  1  0
  5  4  1  0
  6  2  1  0
  7  2  1  0
  8 14  1  0
  9  4  1  0
 10  1  1  0
 11  5  2  0
 12  7  1  0
 13  8  1  0
 14 10  2  0
 15  5  1  0
 16 22  1  0
 17 11  1  0
 18 15  2  0
 19 18  1  0
 20 12  2  0
 21 13  1  0
 22  9  1  0
 23  3  2  0
 24 10  1  0
 25 18  1  0
 26 19  1  0
 27 21  1  0
 28 21  1  0
 29 25  1  0
 30 26  1  0
  8  7  2  0
  9  6  1  0
 21 20  1  0
 11 16  1  0
 17 19  2  0
M  END
>  <ID>  (2105) 


>  <MOLENAME>  (2105) 
alpha-TOXICAROL (dl)

>  <therap>  (2105) 
nan

>  <ref>  (2105) 
J Chem Soc 1938: 513

>  <cas#>  (2105) 
82-09-7

>  <source>  (2105) 
Derris spp

>  <status>  (2105) 
undetermined activity

>  <tradename>  (2105) 
nan

>  <SMILES>  (2105) 
COc1cc2c(cc1OC)C1C(=O)c3c(OC1CO2)c1c(cc3O)OC(C)(C)C=C1

>  <standardized_failed>  (2105) 
False

$$$$

     RDKit          2D

 19 20  0  0  0  0  0  0  0  0999 V2000
    5.3792   -4.0000    0.0000 C   0  0  0  0  0  0  0  0  0  0  0  0
    6.1000   -2.7542    0.0000 C   0  0  0  0  0  0  0  0  0  0  0  0
    6.1000   -3.5792    0.0000 O   0  0  0  0  0  0  0  0  0  0  0  0
    5.3792   -4.8250    0.0000 C   0  0  0  0  0  0  0  0  0  0  0  0
    4.6667   -5.2375    0.0000 C   0  0  0  0  0  0  0  0  0  0  0  0
    4.6667   -3.5875    0.0000 C   0  0  0  0  0  0  0  0  0  0  0  0
    5.3792   -2.3417    0.0000 O   0  0  0  0  0  0  0  0  0  0  0  0
    6.8125   -2.3417    0.0000 C   0  0  0  0  0  0  0  0  0  0  0  0
    6.1000   -5.2500    0.0000 C   0  0  0  0  0  0  0  0  0  0  0  0
    3.9500   -4.8250    0.0000 C   0  0  0  0  0  0  0  0  0  0  0  0
    3.9500   -4.0000    0.0000 C   0  0  0  0  0  0  0  0  0  0  0  0
    6.8125   -1.5125    0.0000 C   0  0  0  0  0  0  0  0  0  0  0  0
    7.5292   -2.7542    0.0000 C   0  0  0  0  0  0  0  0  0  0  0  0
    6.8125   -4.8375    0.0000 C   0  0  0  0  0  0  0  0  0  0  0  0
    6.0917   -6.0792    0.0000 C   0  0  0  0  0  0  0  0  0  0  0  0
    3.2292   -3.5875    0.0000 C   0  0  0  0  0  0  0  0  0  0  0  0
    7.5250   -1.1000    0.0000 C   0  0  0  0  0  0  0  0  0  0  0  0
    8.2417   -2.3417    0.0000 C   0  0  0  0  0  0  0  0  0  0  0  0
    8.2417   -1.5125    0.0000 C   0  0  0  0  0  0  0  0  0  0  0  0
  2  3  1  0
  1  3  1  1
  4  1  1  0
  5  4  1  0
  6  1  1  0
  7  2  2  0
  8  2  1  0
  4  9  1  6
 10 11  1  0
 11  6  1  0
 12  8  2  0
 13  8  1  0
 14  9  1  0
 15  9  1  0
 11 16  1  1
 17 12  1  0
 18 13  2  0
 19 18  1  0
  5 10  1  0
 17 19  2  0
M  END
>  <ID>  (2106) 


>  <MOLENAME>  (2106) 
MENTHYL BENZOATE

>  <therap>  (2106) 
nan

>  <ref>  (2106) 
nan

>  <cas#>  (2106) 
nan

>  <source>  (2106) 
derivative

>  <status>  (2106) 
undetermined activity

>  <tradename>  (2106) 
nan

>  <SMILES>  (2106) 
CC(C)[C@@H]1CC[C@@H](C)C[C@H]1OC(=O)c1ccccc1

>  <standardized_failed>  (2106) 
False

$$$$

     RDKit          2D

 14 14  0  0  0  0  0  0  0  0999 V2000
    3.6125   -2.8250    0.0000 C   0  0  0  0  0  0  0  0  0  0  0  0
    5.0417   -1.9917    0.0000 C   0  0  0  0  0  0  0  0  0  0  0  0
    4.3250   -3.2375    0.0000 C   0  0  0  0  0  0  0  0  0  0  0  0
    3.6125   -2.0000    0.0000 C   0  0  0  0  0  0  0  0  0  0  0  0
    5.0417   -2.8250    0.0000 C   0  0  0  0  0  0  0  0  0  0  0  0
    4.3250   -1.5792    0.0000 C   0  0  0  0  0  0  0  0  0  0  0  0
    5.7542   -1.5792    0.0000 C   0  0  0  0  0  0  0  0  0  0  0  0
    5.7500   -0.7542    0.0000 O   0  0  0  0  0  0  0  0  0  0  0  0
    2.8917   -3.2375    0.0000 O   0  0  0  0  0  0  0  0  0  0  0  0
    2.9000   -1.5875    0.0000 O   0  0  0  0  0  0  0  0  0  0  0  0
    4.3250   -4.0625    0.0000 O   0  0  0  0  0  0  0  0  0  0  0  0
    6.4667   -1.9875    0.0000 C   0  0  0  0  0  0  0  0  0  0  0  0
    3.6125   -4.4750    0.0000 C   0  0  0  0  0  0  0  0  0  0  0  0
    2.9000   -0.7625    0.0000 C   0  0  0  0  0  0  0  0  0  0  0  0
  2  6  1  0
  3  1  2  0
  4  1  1  0
  5  3  1  0
  6  4  2  0
  7  2  1  0
  8  7  2  0
  9  1  1  0
 10  4  1  0
 11  3  1  0
 12  7  1  0
 13 11  1  0
 14 10  1  0
  2  5  2  0
M  END
>  <ID>  (2107) 


>  <MOLENAME>  (2107) 
ACETOSYRINGONE

>  <therap>  (2107) 
insect attractant, plant hormone

>  <ref>  (2107) 
Can J Chem 34: 1562 (1956)

>  <cas#>  (2107) 
2478-38-8

>  <source>  (2107) 
several commercial woods

>  <status>  (2107) 
experimental

>  <tradename>  (2107) 
nan

>  <SMILES>  (2107) 
COc1c(O)c(OC)cc(C(C)=O)c1

>  <standardized_failed>  (2107) 
False

$$$$

     RDKit          2D

 16 17  0  0  0  0  0  0  0  0999 V2000
    3.8875   -3.4167    0.0000 C   0  0  0  0  0  0  0  0  0  0  0  0
    3.1792   -3.8292    0.0000 C   0  0  0  0  0  0  0  0  0  0  0  0
    3.8875   -2.5917    0.0000 C   0  0  0  0  0  0  0  0  0  0  0  0
    2.4542   -3.4167    0.0000 C   0  0  0  0  0  0  0  0  0  0  0  0
    3.1667   -2.1792    0.0000 C   0  0  0  0  0  0  0  0  0  0  0  0
    2.4542   -2.5917    0.0000 C   0  0  0  0  0  0  0  0  0  0  0  0
    4.5042   -3.9667    0.0000 O   0  0  0  0  0  0  0  0  0  0  0  0
    3.3500   -4.6375    0.0000 O   0  0  0  0  0  0  0  0  0  0  0  0
    4.1667   -4.7167    0.0000 C   0  0  0  0  0  0  0  0  0  0  0  0
    3.8792   -0.9417    0.0000 C   0  0  0  0  0  0  0  0  0  0  0  0
    3.8792   -0.1167    0.0000 C   0  0  0  0  0  0  0  0  0  0  0  0
    4.6000   -2.1750    0.0000 O   0  0  0  0  0  0  0  0  0  0  0  0
    1.7417   -3.8292    0.0000 O   0  0  0  0  0  0  0  0  0  0  0  0
    3.1667   -1.3542    0.0000 C   0  0  0  0  0  0  0  0  0  0  0  0
    5.3167   -2.5792    0.0000 C   0  0  0  0  0  0  0  0  0  0  0  0
    1.7417   -4.6542    0.0000 C   0  0  0  0  0  0  0  0  0  0  0  0
  2  1  1  0
  3  1  2  0
  4  2  2  0
  5  3  1  0
  6  5  2  0
  7  1  1  0
  8  2  1  0
  9  7  1  0
 10 14  1  0
 11 10  2  0
 12  3  1  0
 13  4  1  0
 14  5  1  0
 15 12  1  0
 16 13  1  0
  8  9  1  0
  6  4  1  0
M  END
>  <ID>  (2108) 


>  <MOLENAME>  (2108) 
APIOLE

>  <therap>  (2108) 
antipyretic, diuretic, insecticide

>  <ref>  (2108) 
Phytochemistry 15: 1773 (1976); Pharmazie 34: 426 (1979)

>  <cas#>  (2108) 
523-80-8

>  <source>  (2108) 
Petroselimum spp, Anethum graveolens

>  <status>  (2108) 
experimental

>  <tradename>  (2108) 
nan

>  <SMILES>  (2108) 
C=CCc1cc(OC)c2OCOc2c1OC

>  <standardized_failed>  (2108) 
False

$$$$

     RDKit          2D

 16 18  0  0  0  0  0  0  0  0999 V2000
    3.8292   -1.0625    0.0000 C   0  0  0  0  0  0  0  0  0  0  0  0
    4.8625   -1.7417    0.0000 C   0  0  0  0  0  0  0  0  0  0  0  0
    3.9125   -1.7625    0.0000 C   0  0  0  0  0  0  0  0  0  0  0  0
    5.0792   -1.0625    0.0000 C   0  0  0  0  0  0  0  0  0  0  0  0
    4.5167   -0.4375    0.0000 C   0  0  0  0  0  0  0  0  0  0  0  0
    5.1125    0.0333    0.0000 C   0  0  0  0  0  0  0  0  0  0  0  0
    3.3750   -0.3542    0.0000 C   0  0  0  0  0  0  0  0  0  0  0  0
    3.1500   -2.1167    0.0000 C   0  0  0  0  0  0  0  0  0  0  0  0
    2.8917   -0.8750    0.0000 C   0  0  0  0  0  0  0  0  0  0  0  0
    4.0167    0.3125    0.0000 C   0  0  0  0  0  0  0  0  0  0  0  0
    2.4417   -1.7042    0.0000 C   0  0  0  0  0  0  0  0  0  0  0  0
    5.8292    0.4458    0.0000 O   0  0  0  0  0  0  0  0  0  0  0  0
    5.1292   -2.7500    0.0000 C   0  0  0  0  0  0  0  0  0  0  0  0
    5.5042   -2.0167    0.0000 C   0  0  0  0  0  0  0  0  0  0  0  0
    4.8917    0.8333    0.0000 C   0  0  0  0  0  0  0  0  0  0  0  0
    2.6792   -0.0750    0.0000 C   0  0  0  0  0  0  0  0  0  0  0  0
  2  3  1  0
  3  1  1  0
  4  5  1  0
  5  1  1  0
  6 10  1  0
  7  1  1  0
  3  8  1  6
  9  1  1  0
 10  7  1  0
 11  9  1  0
  6 12  1  0
 13  2  1  0
 14  2  1  0
  6 15  1  6
  9 16  1  1
 11  8  1  0
  2  4  1  0
  4  6  1  0
M  END
>  <ID>  (2109) 


>  <MOLENAME>  (2109) 
CEDROL

>  <therap>  (2109) 
acaricide

>  <ref>  (2109) 
J Org Chem 43: 1964 (1978)

>  <cas#>  (2109) 
77-53-2

>  <source>  (2109) 
Common constitutent in the Family Cupressaceae

>  <status>  (2109) 
experimental

>  <tradename>  (2109) 
nan

>  <SMILES>  (2109) 
C[C@@H]1CC[C@H]2C(C)(C)C3CC21CC[C@@]3(C)O

>  <standardized_failed>  (2109) 
False

$$$$

     RDKit          2D

 22 24  0  0  0  0  0  0  0  0999 V2000
    6.3167  -10.9542    0.0000 C   0  0  0  0  0  0  0  0  0  0  0  0
    6.3167  -10.2000    0.0000 C   0  0  0  0  0  0  0  0  0  0  0  0
    5.6625  -11.3292    0.0000 C   0  0  0  0  0  0  0  0  0  0  0  0
    5.0042  -10.9542    0.0000 C   0  0  0  0  0  0  0  0  0  0  0  0
    5.6625   -9.8167    0.0000 O   0  0  0  0  0  0  0  0  0  0  0  0
    5.0042  -10.2000    0.0000 C   0  0  0  0  0  0  0  0  0  0  0  0
    4.3542  -11.3292    0.0000 C   0  0  0  0  0  0  0  0  0  0  0  0
    6.9667   -9.8250    0.0000 C   0  0  0  0  0  0  0  0  0  0  0  0
    4.3542   -9.8167    0.0000 C   0  0  0  0  0  0  0  0  0  0  0  0
    3.7042  -10.9542    0.0000 C   0  0  0  0  0  0  0  0  0  0  0  0
    6.9667   -9.0750    0.0000 C   0  0  0  0  0  0  0  0  0  0  0  0
    7.6167   -8.7000    0.0000 C   0  0  0  0  0  0  0  0  0  0  0  0
    5.6625  -12.0792    0.0000 O   0  0  0  0  0  0  0  0  0  0  0  0
    3.7042  -10.2000    0.0000 C   0  0  0  0  0  0  0  0  0  0  0  0
    8.2625   -9.0750    0.0000 C   0  0  0  0  0  0  0  0  0  0  0  0
    7.6167  -10.2000    0.0000 C   0  0  0  0  0  0  0  0  0  0  0  0
    6.9667  -11.3292    0.0000 O   0  0  0  0  0  0  0  0  0  0  0  0
    8.2625   -9.8250    0.0000 C   0  0  0  0  0  0  0  0  0  0  0  0
    4.3542  -12.0792    0.0000 O   0  0  0  0  0  0  0  0  0  0  0  0
    7.6167   -7.9500    0.0000 O   0  0  0  0  0  0  0  0  0  0  0  0
    3.0542   -9.8250    0.0000 O   0  0  0  0  0  0  0  0  0  0  0  0
    8.9125   -8.7000    0.0000 O   0  0  0  0  0  0  0  0  0  0  0  0
  2  1  2  0
  3  1  1  0
  4  3  1  0
  5  2  1  0
  6  4  2  0
  7  4  1  0
  8  2  1  0
  9  6  1  0
 10  7  2  0
 11  8  2  0
 12 11  1  0
 13  3  2  0
 14 10  1  0
 15 18  1  0
 16  8  1  0
 17  1  1  0
 18 16  2  0
 19  7  1  0
 20 12  1  0
 21 14  1  0
 22 15  1  0
  6  5  1  0
  9 14  2  0
 12 15  2  0
M  END
>  <ID>  (2110) 


>  <MOLENAME>  (2110) 
QUERCETIN

>  <therap>  (2110) 
capillary protectant, antioxidant. antineoplastic, anti-HIV

>  <ref>  (2110) 
Chem Ber 103:3674 (1970); Experientia 28:380 (1972); Phytochemistry 12:1787 (1973); IARC Monog 31:213 Suppl 7:71 (1983); Antiviral Res 12:99 (1989)

>  <cas#>  (2110) 
117-39-5, 6151-25-3(hydrate)

>  <source>  (2110) 
Solanaceae, Rhamnaceae, Passifloraceae, Umbelliferae genera

>  <status>  (2110) 
experimental

>  <tradename>  (2110) 
nan

>  <SMILES>  (2110) 
O=c1c(O)c(-c2cc(O)c(O)cc2)oc2c1c(O)cc(O)c2

>  <standardized_failed>  (2110) 
False

$$$$

     RDKit          2D

 20 19  0  0  0  0  0  0  0  0999 V2000
    2.5500   -3.8042    0.0000 C   0  0  0  0  0  0  0  0  0  0  0  0
   11.8125   -3.3667    0.0000 C   0  0  0  0  0  0  0  0  0  0  0  0
   12.4417   -3.7792    0.0000 C   0  0  0  0  0  0  0  0  0  0  0  0
    1.8375   -3.3917    0.0000 C   0  0  0  0  0  0  0  0  0  0  0  0
    3.2625   -3.3917    0.0000 C   0  0  0  0  0  0  0  0  0  0  0  0
    1.8292   -2.5667    0.0000 O   0  0  0  0  0  0  0  0  0  0  0  0
    3.2542   -2.5667    0.0000 O   0  0  0  0  0  0  0  0  0  0  0  0
    0.4042   -3.3917    0.0000 O   0  0  0  0  0  0  0  0  0  0  0  0
   11.1000   -3.7792    0.0000 C   0  0  0  0  0  0  0  0  0  0  0  0
    1.1250   -3.8042    0.0000 C   0  0  0  0  0  0  0  0  0  0  0  0
    3.9667   -3.8000    0.0000 C   0  0  0  0  0  0  0  0  0  0  0  0
   10.3875   -3.3667    0.0000 C   0  0  0  0  0  0  0  0  0  0  0  0
    4.6875   -3.3875    0.0000 C   0  0  0  0  0  0  0  0  0  0  0  0
    7.5375   -3.3792    0.0000 C   0  0  0  0  0  0  0  0  0  0  0  0
    8.2500   -3.7875    0.0000 C   0  0  0  0  0  0  0  0  0  0  0  0
    8.9625   -3.3750    0.0000 C   0  0  0  0  0  0  0  0  0  0  0  0
    9.6750   -3.7792    0.0000 C   0  0  0  0  0  0  0  0  0  0  0  0
    5.4000   -3.7917    0.0000 C   0  0  0  0  0  0  0  0  0  0  0  0
    6.1125   -3.3792    0.0000 C   0  0  0  0  0  0  0  0  0  0  0  0
    6.8250   -3.7917    0.0000 C   0  0  0  0  0  0  0  0  0  0  0  0
  2  9  1  0
  3  2  2  0
  4  1  1  0
  5  1  1  0
  6  4  1  0
  7  5  1  0
  8 10  1  0
  9 12  1  0
 10  4  1  0
 11  5  1  0
 12 17  1  0
 13 11  1  0
 14 20  1  0
 15 14  1  0
 16 15  1  0
 17 16  1  0
 18 13  1  0
 19 18  1  0
 20 19  1  0
M  END
>  <ID>  (2111) 


>  <MOLENAME>  (2111) 
AVOCADENE

>  <therap>  (2111) 
antifungal

>  <ref>  (2111) 
Ann Acad Brasil Cienc 42 (suplemento): 45 (1970); Tetrahedron 25: 4617 (1969); Phytochemistry 10: 1417 (1971); 31: 93 (1992)

>  <cas#>  (2111) 
24607-08-7

>  <source>  (2111) 
Persia americana; avocado seeds

>  <status>  (2111) 
experimental

>  <tradename>  (2111) 
nan

>  <SMILES>  (2111) 
C=CCCCCCCCCCCCC(O)CC(O)CO

>  <standardized_failed>  (2111) 
False

$$$$

     RDKit          2D

 25 28  0  0  0  0  0  0  0  0999 V2000
    3.0667   -1.4500    0.0000 C   0  0  0  0  0  0  0  0  0  0  0  0
    3.7167   -1.8292    0.0000 C   0  0  0  0  0  0  0  0  0  0  0  0
    4.3792   -1.4542    0.0000 C   0  0  0  0  0  0  0  0  0  0  0  0
    3.0667   -0.6917    0.0000 C   0  0  0  0  0  0  0  0  0  0  0  0
    2.4125   -1.8292    0.0000 C   0  0  0  0  0  0  0  0  0  0  0  0
    4.3792   -0.6917    0.0000 C   0  0  0  0  0  0  0  0  0  0  0  0
    3.7250   -0.3167    0.0000 O   0  0  0  0  0  0  0  0  0  0  0  0
    5.0292   -1.8292    0.0000 C   0  0  0  0  0  0  0  0  0  0  0  0
    1.7542   -1.4500    0.0000 C   0  0  0  0  0  0  0  0  0  0  0  0
    2.4125   -2.5792    0.0000 C   0  0  0  0  0  0  0  0  0  0  0  0
    1.7625   -0.6917    0.0000 O   0  0  0  0  0  0  0  0  0  0  0  0
    1.1125   -1.8292    0.0000 C   0  0  0  0  0  0  0  0  0  0  0  0
    5.0292   -0.3167    0.0000 C   0  0  0  0  0  0  0  0  0  0  0  0
    5.6875   -1.4542    0.0000 C   0  0  0  0  0  0  0  0  0  0  0  0
    1.7542   -2.9542    0.0000 C   0  0  0  0  0  0  0  0  0  0  0  0
    1.1125   -2.5792    0.0000 C   0  0  0  0  0  0  0  0  0  0  0  0
    2.4167   -0.3167    0.0000 C   0  0  0  0  0  0  0  0  0  0  0  0
    3.7167   -2.5792    0.0000 O   0  0  0  0  0  0  0  0  0  0  0  0
    5.6875   -0.7000    0.0000 C   0  0  0  0  0  0  0  0  0  0  0  0
    5.0292   -2.5792    0.0000 O   0  0  0  0  0  0  0  0  0  0  0  0
    1.7542   -3.7042    0.0000 O   0  0  0  0  0  0  0  0  0  0  0  0
    0.4625   -2.9542    0.0000 O   0  0  0  0  0  0  0  0  0  0  0  0
    6.3417   -0.3250    0.0000 O   0  0  0  0  0  0  0  0  0  0  0  0
   -0.1875   -2.5792    0.0000 C   0  0  0  0  0  0  0  0  0  0  0  0
    1.1042   -4.0792    0.0000 C   0  0  0  0  0  0  0  0  0  0  0  0
  2  1  1  0
  3  2  1  0
  4  1  2  0
  5  1  1  0
  6  7  1  0
  7  4  1  0
  8  3  2  0
  9  5  2  0
 10  5  1  0
 11  9  1  0
 12  9  1  0
 13  6  2  0
 14  8  1  0
 15 10  2  0
 16 15  1  0
 17  4  1  0
 18  2  2  0
 19 13  1  0
 20  8  1  0
 21 15  1  0
 22 16  1  0
 23 19  1  0
 24 22  1  0
 25 21  1  0
 11 17  1  0
  6  3  1  0
 16 12  2  0
 19 14  2  0
M  END
>  <ID>  (2112) 


>  <MOLENAME>  (2112) 
APOTOXICAROL

>  <therap>  (2112) 
nan

>  <ref>  (2112) 
nan

>  <cas#>  (2112) 
nan

>  <source>  (2112) 
derivative

>  <status>  (2112) 
undetermined activity

>  <tradename>  (2112) 
nan

>  <SMILES>  (2112) 
COc1cc2c(cc1OC)-c1c(CO2)oc2cc(O)cc(O)c2c1=O

>  <standardized_failed>  (2112) 
False

$$$$

     RDKit          2D

 24 26  0  0  0  0  0  0  0  0999 V2000
    2.9542   -0.7625    0.0000 C   0  0  0  0  0  0  0  0  0  0  0  0
    1.6167   -0.9042    0.0000 C   0  0  0  0  0  0  0  0  0  0  0  0
    2.2375   -0.3500    0.0000 C   0  0  0  0  0  0  0  0  0  0  0  0
    1.9625   -1.6542    0.0000 C   0  0  0  0  0  0  0  0  0  0  0  0
    3.6667   -0.3500    0.0000 C   0  0  0  0  0  0  0  0  0  0  0  0
    2.7792   -1.5667    0.0000 O   0  0  0  0  0  0  0  0  0  0  0  0
    4.3792   -0.7625    0.0000 C   0  0  0  0  0  0  0  0  0  0  0  0
    0.8000   -0.8292    0.0000 C   0  0  0  0  0  0  0  0  0  0  0  0
    1.5500   -2.3792    0.0000 O   0  0  0  0  0  0  0  0  0  0  0  0
    3.6667    0.4750    0.0000 C   0  0  0  0  0  0  0  0  0  0  0  0
    4.3792   -1.5917    0.0000 O   0  0  0  0  0  0  0  0  0  0  0  0
    2.1542    0.4750    0.0000 O   0  0  0  0  0  0  0  0  0  0  0  0
    5.0917   -0.3500    0.0000 O   0  0  0  0  0  0  0  0  0  0  0  0
    0.3167   -1.5000    0.0000 C   0  0  0  0  0  0  0  0  0  0  0  0
    0.4542   -0.0792    0.0000 C   0  0  0  0  0  0  0  0  0  0  0  0
    4.3792    0.8875    0.0000 C   0  0  0  0  0  0  0  0  0  0  0  0
    2.9542    0.8875    0.0000 C   0  0  0  0  0  0  0  0  0  0  0  0
    5.0917    0.4833    0.0000 C   0  0  0  0  0  0  0  0  0  0  0  0
   -0.3708   -0.0000    0.0000 C   0  0  0  0  0  0  0  0  0  0  0  0
   -0.5083   -1.4167    0.0000 C   0  0  0  0  0  0  0  0  0  0  0  0
    2.9542    1.7208    0.0000 C   0  0  0  0  0  0  0  0  0  0  0  0
    4.3792    1.7208    0.0000 C   0  0  0  0  0  0  0  0  0  0  0  0
   -0.8458   -0.6750    0.0000 C   0  0  0  0  0  0  0  0  0  0  0  0
    3.6667    2.1333    0.0000 C   0  0  0  0  0  0  0  0  0  0  0  0
  2  3  2  0
  3  1  1  0
  4  6  1  0
  5  1  2  0
  6  1  1  0
  7  5  1  0
  8  2  1  0
  9  4  2  0
 10  5  1  0
 11  7  2  0
 12  3  1  0
 13  7  1  0
 14  8  2  0
 15  8  1  0
 16 10  2  0
 17 10  1  0
 18 13  1  0
 19 15  2  0
 20 14  1  0
 21 17  2  0
 22 16  1  0
 23 19  1  0
 24 21  1  0
  2  4  1  0
 22 24  2  0
 20 23  2  0
M  END
>  <ID>  (2113) 


>  <MOLENAME>  (2113) 
VULPINIC ACID

>  <therap>  (2113) 
antiinflammatory, antibacterial, plant growth inhibitor 

>  <ref>  (2113) 
J Am Chem Soc 72:1824 (1950)

>  <cas#>  (2113) 
521-52-8

>  <source>  (2113) 
numerous lichens, e.g. Letharia vulpina 

>  <status>  (2113) 
experimental

>  <tradename>  (2113) 
nan

>  <SMILES>  (2113) 
COC(=O)/C(=C1\OC(=O)C(c2ccccc2)=C1O)c1ccccc1

>  <standardized_failed>  (2113) 
False

$$$$

     RDKit          2D

 33 38  0  0  0  0  0  0  0  0999 V2000
    6.6542   -3.4292    0.0000 C   0  0  0  0  0  0  0  0  0  0  0  0
    6.6375   -4.2500    0.0000 C   0  0  0  0  0  0  0  0  0  0  0  0
    5.9250   -4.6542    0.0000 C   0  0  0  0  0  0  0  0  0  0  0  0
    7.3667   -3.0292    0.0000 C   0  0  0  0  0  0  0  0  0  0  0  0
    4.5042   -4.6500    0.0000 C   0  0  0  0  0  0  0  0  0  0  0  0
    6.6500   -2.6042    0.0000 O   0  0  0  0  0  0  0  0  0  0  0  0
    8.0667   -3.4542    0.0000 C   0  0  0  0  0  0  0  0  0  0  0  0
    8.0750   -2.6167    0.0000 C   0  0  0  0  0  0  0  0  0  0  0  0
    5.2167   -4.2375    0.0000 C   0  0  0  0  0  0  0  0  0  0  0  0
    4.5000   -5.4750    0.0000 C   0  0  0  0  0  0  0  0  0  0  0  0
    5.9417   -3.0042    0.0000 C   0  0  0  0  0  0  0  0  0  0  0  0
    3.7917   -5.8792    0.0000 C   0  0  0  0  0  0  0  0  0  0  0  0
    5.2250   -3.4125    0.0000 C   0  0  0  0  0  0  0  0  0  0  0  0
    7.1917   -2.2125    0.0000 C   0  0  0  0  0  0  0  0  0  0  0  0
    7.3417   -4.6667    0.0000 C   0  0  0  0  0  0  0  0  0  0  0  0
    5.9292   -5.4792    0.0000 C   0  0  0  0  0  0  0  0  0  0  0  0
    3.0792   -5.4750    0.0000 C   0  0  0  0  0  0  0  0  0  0  0  0
    8.0542   -4.2750    0.0000 C   0  0  0  0  0  0  0  0  0  0  0  0
    3.7917   -4.2292    0.0000 C   0  0  0  0  0  0  0  0  0  0  0  0
    5.2125   -5.8875    0.0000 C   0  0  0  0  0  0  0  0  0  0  0  0
    9.1375   -2.7417    0.0000 C   0  0  0  0  0  0  0  0  0  0  0  0
    8.5750   -2.1500    0.0000 O   0  0  0  0  0  0  0  0  0  0  0  0
    3.0792   -4.6500    0.0000 C   0  0  0  0  0  0  0  0  0  0  0  0
    8.0125   -1.4917    0.0000 C   0  0  0  0  0  0  0  0  0  0  0  0
    8.9792   -1.7125    0.0000 C   0  0  0  0  0  0  0  0  0  0  0  0
    2.3667   -5.8792    0.0000 O   0  0  0  0  0  0  0  0  0  0  0  0
    6.6292   -5.0750    0.0000 C   0  0  0  0  0  0  0  0  0  0  0  0
    5.9167   -3.8292    0.0000 C   0  0  0  0  0  0  0  0  0  0  0  0
    4.5000   -3.8250    0.0000 C   0  0  0  0  0  0  0  0  0  0  0  0
    3.2042   -6.4667    0.0000 C   0  0  0  0  0  0  0  0  0  0  0  0
    4.3750   -6.4667    0.0000 C   0  0  0  0  0  0  0  0  0  0  0  0
    6.4792   -1.8000    0.0000 C   0  0  0  0  0  0  0  0  0  0  0  0
    7.7917   -0.7125    0.0000 C   0  0  0  0  0  0  0  0  0  0  0  0
  2  1  1  0
  3  2  1  0
  4  1  1  0
  5  9  1  0
  1  6  1  1
  7  4  1  0
  8  6  1  0
  9 13  1  0
 10  5  1  0
 11  1  1  0
 12 10  1  0
 13 11  2  0
 14  4  1  0
 15  2  1  0
 16  3  1  0
 17 23  1  0
  7 18  1  1
 19  5  1  0
 20 16  1  0
 21  7  1  0
 22  8  2  0
 23 19  1  0
 24 14  1  0
 25 24  1  0
 26 17  2  0
 27  2  1  0
  3 28  1  1
  5 29  1  1
 30 12  1  0
 31 12  1  0
 14 32  1  1
 24 33  1  6
  7  8  1  0
  3  9  1  0
 15 18  1  0
 21 25  1  0
 10 20  1  0
 12 17  1  0
M  END
>  <ID>  (2114) 


>  <MOLENAME>  (2114) 
3-OXOURSAN (28-13)OLIDE

>  <therap>  (2114) 
nan

>  <ref>  (2114) 
nan

>  <cas#>  (2114) 
nan

>  <source>  (2114) 
semisynthetic

>  <status>  (2114) 
undetermined activity

>  <tradename>  (2114) 
nan

>  <SMILES>  (2114) 
C[C@@H]1C2[C@]3(CC[C@H]1C)CCC1(C)[C@@]2(C=CC2[C@@]4(C)CCC(=O)C(C)(C)C4CC[C@]21C)OC3=O

>  <standardized_failed>  (2114) 
False

$$$$

     RDKit          2D

 22 24  0  0  0  0  0  0  0  0999 V2000
    5.4542   -2.2292    0.0000 C   0  0  0  0  0  0  0  0  0  0  0  0
    5.4500   -3.0625    0.0000 C   0  0  0  0  0  0  0  0  0  0  0  0
    4.7292   -3.4750    0.0000 C   0  0  0  0  0  0  0  0  0  0  0  0
    6.1667   -1.8250    0.0000 C   0  0  0  0  0  0  0  0  0  0  0  0
    6.8792   -2.2417    0.0000 C   0  0  0  0  0  0  0  0  0  0  0  0
    4.1417   -4.0542    0.0000 C   0  0  0  0  0  0  0  0  0  0  0  0
    6.1667   -3.4792    0.0000 C   0  0  0  0  0  0  0  0  0  0  0  0
    7.6000   -1.8292    0.0000 C   0  0  0  0  0  0  0  0  0  0  0  0
    6.1667   -1.0000    0.0000 C   0  0  0  0  0  0  0  0  0  0  0  0
    7.6000   -1.0000    0.0000 C   0  0  0  0  0  0  0  0  0  0  0  0
    6.8875   -3.0667    0.0000 C   0  0  0  0  0  0  0  0  0  0  0  0
    6.8792   -0.5875    0.0000 C   0  0  0  0  0  0  0  0  0  0  0  0
    4.3542   -4.8542    0.0000 O   0  0  0  0  0  0  0  0  0  0  0  0
    3.3500   -3.8375    0.0000 N   0  0  0  0  0  0  0  0  0  0  0  0
    4.7500   -1.8125    0.0000 C   0  0  0  0  0  0  0  0  0  0  0  0
    8.3125   -0.5792    0.0000 C   0  0  0  0  0  0  0  0  0  0  0  0
    5.4542   -1.4042    0.0000 C   0  0  0  0  0  0  0  0  0  0  0  0
    4.0167   -3.0500    0.0000 C   0  0  0  0  0  0  0  0  0  0  0  0
    5.3167   -4.0542    0.0000 C   0  0  0  0  0  0  0  0  0  0  0  0
    4.0250   -2.2167    0.0000 C   0  0  0  0  0  0  0  0  0  0  0  0
    9.0292   -0.9917    0.0000 C   0  0  0  0  0  0  0  0  0  0  0  0
    8.3042    0.2458    0.0000 C   0  0  0  0  0  0  0  0  0  0  0  0
  2  1  1  0
  3  2  1  0
  4  1  1  0
  5  4  2  0
  6  3  1  0
  7  2  1  0
  8  5  1  0
  9  4  1  0
 10 12  1  0
 11  5  1  0
 12  9  2  0
 13  6  2  0
 14  6  1  0
 15  1  1  0
 16 10  1  0
 17  1  1  0
 18 20  1  0
 19  3  1  0
 20 15  1  0
 21 16  1  0
 22 16  1  0
  3 18  1  0
  7 11  1  0
  8 10  2  0
M  END
>  <ID>  (2115) 


>  <MOLENAME>  (2115) 
DEHYDROABIETAMIDE

>  <therap>  (2115) 
nan

>  <ref>  (2115) 
nan

>  <cas#>  (2115) 
nan

>  <source>  (2115) 
derivative

>  <status>  (2115) 
undetermined activity

>  <tradename>  (2115) 
nan

>  <SMILES>  (2115) 
CC(C)c1cc2c(cc1)C1(C)CCCC(C)(C(N)=O)C1CC2

>  <standardized_failed>  (2115) 
False

$$$$

     RDKit          2D

 31 34  0  0  0  0  0  0  0  0999 V2000
    7.0500   -0.6542    0.0000 C   0  0  0  0  0  0  0  0  0  0  0  0
    6.3292   -1.8917    0.0000 C   0  0  0  0  0  0  0  0  0  0  0  0
    6.3292   -1.0667    0.0000 C   0  0  0  0  0  0  0  0  0  0  0  0
    8.4792   -0.6542    0.0000 C   0  0  0  0  0  0  0  0  0  0  0  0
    5.6167   -2.3125    0.0000 C   0  0  0  0  0  0  0  0  0  0  0  0
    5.6167   -0.6542    0.0000 C   0  0  0  0  0  0  0  0  0  0  0  0
    7.7625   -1.0667    0.0000 C   0  0  0  0  0  0  0  0  0  0  0  0
    8.4792    0.1750    0.0000 O   0  0  0  0  0  0  0  0  0  0  0  0
    4.9000   -1.0667    0.0000 C   0  0  0  0  0  0  0  0  0  0  0  0
    7.0500    0.1750    0.0000 C   0  0  0  0  0  0  0  0  0  0  0  0
    7.7625    0.5875    0.0000 C   0  0  0  0  0  0  0  0  0  0  0  0
    7.7625    1.4208    0.0000 C   0  0  0  0  0  0  0  0  0  0  0  0
    4.9000   -1.8917    0.0000 C   0  0  0  0  0  0  0  0  0  0  0  0
    7.0500   -2.3042    0.0000 C   0  0  0  0  0  0  0  0  0  0  0  0
    5.0292   -2.8917    0.0000 C   0  0  0  0  0  0  0  0  0  0  0  0
    4.1792   -0.6500    0.0000 O   0  0  0  0  0  0  0  0  0  0  0  0
    7.7625   -1.9000    0.0000 C   0  0  0  0  0  0  0  0  0  0  0  0
    4.1875    0.1750    0.0000 C   0  0  0  0  0  0  0  0  0  0  0  0
    8.4042    1.9333    0.0000 C   0  0  0  0  0  0  0  0  0  0  0  0
    9.2000   -1.0750    0.0000 O   0  0  0  0  0  0  0  0  0  0  0  0
    8.1125    2.7083    0.0000 O   0  0  0  0  0  0  0  0  0  0  0  0
    7.0792    1.8708    0.0000 C   0  0  0  0  0  0  0  0  0  0  0  0
    5.6167    0.1708    0.0000 O   0  0  0  0  0  0  0  0  0  0  0  0
    4.2292   -2.6750    0.0000 O   0  0  0  0  0  0  0  0  0  0  0  0
    7.3000    2.6625    0.0000 C   0  0  0  0  0  0  0  0  0  0  0  0
    4.9000    0.5833    0.0000 O   0  0  0  0  0  0  0  0  0  0  0  0
    7.0500   -1.4792    0.0000 C   0  0  0  0  0  0  0  0  0  0  0  0
    6.3292   -2.7167    0.0000 C   0  0  0  0  0  0  0  0  0  0  0  0
    5.2375   -3.6917    0.0000 O   0  0  0  0  0  0  0  0  0  0  0  0
    3.4667    0.5875    0.0000 C   0  0  0  0  0  0  0  0  0  0  0  0
    4.6500   -4.2667    0.0000 C   0  0  0  0  0  0  0  0  0  0  0  0
  2  3  1  0
  1  3  1  0
  4  7  1  0
  2  5  1  0
  3  6  1  6
  7  1  1  0
  8 11  1  0
  9  6  1  0
 10  1  1  0
 11 10  1  1
 11 12  1  0
 13  9  1  0
 14 17  1  0
  5 15  1  6
  9 16  1  6
  7 17  1  6
 18 16  1  0
 19 12  2  0
 20  4  2  0
 21 19  1  0
 22 12  1  0
 23  6  2  0
 24 15  2  0
 25 22  2  0
 26 18  2  0
  1 27  1  6
  2 28  1  6
 29 15  1  0
 30 18  1  0
 31 29  1  0
  8  4  1  0
 14  2  1  0
  5 13  1  0
 21 25  1  0
M  END
>  <ID>  (2116) 


>  <MOLENAME>  (2116) 
SALVINORIN A

>  <therap>  (2116) 
k-opiod receptor agonist, psychotropic

>  <ref>  (2116) 
J Chem Soc 1982:2505; J Org Chem 49:4716 (1984); Chem Lett 1990:2015 

>  <cas#>  (2116) 
83729-01-5

>  <source>  (2116) 
Salvia divinorum

>  <status>  (2116) 
experimental

>  <tradename>  (2116) 
nan

>  <SMILES>  (2116) 
COC(=O)[C@@H]1C[C@H](OC(C)=O)C(=O)[C@H]2[C@@]1(C)CC[C@H]1C(=O)O[C@H](c3cocc3)C[C@]21C

>  <standardized_failed>  (2116) 
False

$$$$

     RDKit          2D

 13 12  0  0  0  0  0  0  0  0999 V2000
    3.8667   -0.8917    0.0000 C   0  0  0  0  0  0  0  0  0  0  0  0
    4.3500   -1.5500    0.0000 C   0  0  0  0  0  0  0  0  0  0  0  0
    3.8625   -2.2042    0.0000 C   0  0  0  0  0  0  0  0  0  0  0  0
    4.3250   -0.2125    0.0000 C   0  0  0  0  0  0  0  0  0  0  0  0
    4.3250   -2.9042    0.0000 C   0  0  0  0  0  0  0  0  0  0  0  0
    3.9667    0.5250    0.0000 O   0  0  0  0  0  0  0  0  0  0  0  0
    3.0417   -0.9125    0.0000 N   0  0  0  0  0  0  0  0  0  0  0  0
    5.1792   -1.5500    0.0000 O   0  0  0  0  0  0  0  0  0  0  0  0
    3.0417   -2.1917    0.0000 O   0  0  0  0  0  0  0  0  0  0  0  0
    5.1500   -0.2750    0.0000 O   0  0  0  0  0  0  0  0  0  0  0  0
    5.1500   -2.9167    0.0000 O   0  0  0  0  0  0  0  0  0  0  0  0
    4.3042   -4.2500    0.0000 O   0  0  0  0  0  0  0  0  0  0  0  0
    3.8375   -3.5917    0.0000 C   0  0  0  0  0  0  0  0  0  0  0  0
  2  1  1  0
  3  2  1  0
  4  1  1  0
  5  3  1  0
  6  4  2  0
  1  7  1  1
  2  8  1  1
  3  9  1  1
 10  4  1  0
  5 11  1  6
 12 13  1  0
 13  5  1  0
M  END
>  <ID>  (2117) 


>  <MOLENAME>  (2117) 
GLUCOSAMINIC ACID

>  <therap>  (2117) 
nan

>  <ref>  (2117) 
nan

>  <cas#>  (2117) 
3646-68-2

>  <source>  (2117) 
oxidation product of glucosamine (01500316)

>  <status>  (2117) 
undetermined activity

>  <tradename>  (2117) 
nan

>  <SMILES>  (2117) 
N[C@@H](C(=O)O)[C@@H](O)[C@H](O)[C@H](O)CO

>  <standardized_failed>  (2117) 
False

$$$$

     RDKit          2D

 17 19  0  0  0  0  0  0  0  0999 V2000
    7.4042   -3.7250    0.0000 C   0  0  0  0  0  0  0  0  0  0  0  0
    4.7000   -4.1292    0.0000 C   0  0  0  0  0  0  0  0  0  0  0  0
    6.9250   -4.3792    0.0000 C   0  0  0  0  0  0  0  0  0  0  0  0
    6.1375   -4.1292    0.0000 C   0  0  0  0  0  0  0  0  0  0  0  0
    5.4167   -4.5417    0.0000 C   0  0  0  0  0  0  0  0  0  0  0  0
    6.9250   -3.0500    0.0000 O   0  0  0  0  0  0  0  0  0  0  0  0
    6.1375   -3.3000    0.0000 C   0  0  0  0  0  0  0  0  0  0  0  0
    4.7000   -3.3000    0.0000 C   0  0  0  0  0  0  0  0  0  0  0  0
    5.4167   -2.8917    0.0000 C   0  0  0  0  0  0  0  0  0  0  0  0
    8.2125   -3.7292    0.0000 O   0  0  0  0  0  0  0  0  0  0  0  0
    7.1917   -5.1667    0.0000 C   0  0  0  0  0  0  0  0  0  0  0  0
    3.9917   -4.5417    0.0000 C   0  0  0  0  0  0  0  0  0  0  0  0
    3.9917   -2.8917    0.0000 C   0  0  0  0  0  0  0  0  0  0  0  0
    4.7000   -2.4667    0.0000 C   0  0  0  0  0  0  0  0  0  0  0  0
    3.2625   -3.3000    0.0000 C   0  0  0  0  0  0  0  0  0  0  0  0
    3.2625   -4.1292    0.0000 C   0  0  0  0  0  0  0  0  0  0  0  0
    4.0000   -5.3750    0.0000 C   0  0  0  0  0  0  0  0  0  0  0  0
  2  5  2  0
  3  1  1  0
  4  3  1  0
  4  5  1  1
  6  1  1  0
  7  6  1  0
  8  9  1  0
  7  9  1  1
 10  1  2  0
 11  3  2  0
 12  2  1  0
 13  8  1  0
  8 14  1  1
 15 13  1  0
 16 12  1  0
 12 17  1  1
  7  4  1  0
  8  2  1  0
 16 15  1  0
M  END
>  <ID>  (2118) 


>  <MOLENAME>  (2118) 
HELENINE

>  <therap>  (2118) 
anthelmintic, antibacterial, antineoplastic

>  <ref>  (2118) 
J Am Chem Soc 79: 5721 (1957); 88: 3408 (1966); J Org Chem 29: 3727 (1964)

>  <cas#>  (2118) 
546-43-0

>  <source>  (2118) 
Inula spp

>  <status>  (2118) 
experimental

>  <tradename>  (2118) 
nan

>  <SMILES>  (2118) 
C=C1C(=O)O[C@@H]2C[C@@]3(C)CCC[C@H](C)C3=C[C@H]12

>  <standardized_failed>  (2118) 
False

$$$$

     RDKit          2D

 22 24  0  0  0  0  0  0  0  0999 V2000
    5.5875   -4.8417    0.0000 C   0  0  0  0  0  0  0  0  0  0  0  0
    6.2917   -5.2542    0.0000 C   0  0  0  0  0  0  0  0  0  0  0  0
    5.5875   -4.0167    0.0000 C   0  0  0  0  0  0  0  0  0  0  0  0
    6.2917   -3.6042    0.0000 O   0  0  0  0  0  0  0  0  0  0  0  0
    4.8750   -5.2542    0.0000 C   0  0  0  0  0  0  0  0  0  0  0  0
    7.0042   -4.0167    0.0000 C   0  0  0  0  0  0  0  0  0  0  0  0
    7.0042   -4.8417    0.0000 C   0  0  0  0  0  0  0  0  0  0  0  0
    4.8750   -3.6042    0.0000 C   0  0  0  0  0  0  0  0  0  0  0  0
    7.7250   -3.6125    0.0000 C   0  0  0  0  0  0  0  0  0  0  0  0
    4.1542   -4.8417    0.0000 C   0  0  0  0  0  0  0  0  0  0  0  0
    7.7250   -2.7875    0.0000 C   0  0  0  0  0  0  0  0  0  0  0  0
    8.4417   -2.3792    0.0000 C   0  0  0  0  0  0  0  0  0  0  0  0
    4.1542   -4.0167    0.0000 C   0  0  0  0  0  0  0  0  0  0  0  0
    6.2917   -6.0792    0.0000 O   0  0  0  0  0  0  0  0  0  0  0  0
    9.1542   -2.7917    0.0000 C   0  0  0  0  0  0  0  0  0  0  0  0
    8.4375   -4.0292    0.0000 C   0  0  0  0  0  0  0  0  0  0  0  0
    9.1542   -3.6167    0.0000 C   0  0  0  0  0  0  0  0  0  0  0  0
    4.8667   -6.0792    0.0000 O   0  0  0  0  0  0  0  0  0  0  0  0
    8.4417   -1.5542    0.0000 O   0  0  0  0  0  0  0  0  0  0  0  0
    3.4417   -3.6042    0.0000 O   0  0  0  0  0  0  0  0  0  0  0  0
    9.8667   -2.3792    0.0000 O   0  0  0  0  0  0  0  0  0  0  0  0
   10.5792   -2.7792    0.0000 C   0  0  0  0  0  0  0  0  0  0  0  0
  2  1  1  0
  3  1  2  0
  4  3  1  0
  5  1  1  0
  6  4  1  0
  7  2  1  0
  8  3  1  0
  6  9  1  0
 10  5  2  0
 11  9  2  0
 12 11  1  0
 13 10  1  0
 14  2  2  0
 15 17  1  0
 16  9  1  0
 17 16  2  0
 18  5  1  0
 19 12  1  0
 20 13  1  0
 21 15  1  0
 22 21  1  0
  6  7  1  6
  8 13  2  0
 12 15  2  0
M  END
>  <ID>  (2119) 


>  <MOLENAME>  (2119) 
HESPERETIN

>  <therap>  (2119) 
nan

>  <ref>  (2119) 
J Chem Soc 1956: 632

>  <cas#>  (2119) 
520-33-2

>  <source>  (2119) 
aglycone of hesperidin (00310011)

>  <status>  (2119) 
undetermined activity

>  <tradename>  (2119) 
nan

>  <SMILES>  (2119) 
COc1c(O)cc([C@@H]2CC(=O)c3c(cc(O)cc3O)O2)cc1

>  <standardized_failed>  (2119) 
False

$$$$

     RDKit          2D

 21 23  0  0  0  0  0  0  0  0999 V2000
    3.6292   -2.3917    0.0000 C   0  0  0  0  0  0  0  0  0  0  0  0
    2.9167   -2.8042    0.0000 C   0  0  0  0  0  0  0  0  0  0  0  0
    4.3500   -2.8042    0.0000 C   0  0  0  0  0  0  0  0  0  0  0  0
    2.9167   -3.6292    0.0000 C   0  0  0  0  0  0  0  0  0  0  0  0
    4.3500   -3.6375    0.0000 C   0  0  0  0  0  0  0  0  0  0  0  0
    2.2042   -2.3917    0.0000 C   0  0  0  0  0  0  0  0  0  0  0  0
    3.6292   -4.0500    0.0000 O   0  0  0  0  0  0  0  0  0  0  0  0
    2.2042   -4.0500    0.0000 C   0  0  0  0  0  0  0  0  0  0  0  0
    1.4917   -2.8125    0.0000 C   0  0  0  0  0  0  0  0  0  0  0  0
    5.0667   -2.4000    0.0000 C   0  0  0  0  0  0  0  0  0  0  0  0
    3.6292   -1.5667    0.0000 O   0  0  0  0  0  0  0  0  0  0  0  0
    1.4917   -3.6375    0.0000 C   0  0  0  0  0  0  0  0  0  0  0  0
    5.0667   -1.5792    0.0000 C   0  0  0  0  0  0  0  0  0  0  0  0
    5.7792   -2.8167    0.0000 C   0  0  0  0  0  0  0  0  0  0  0  0
    2.1917   -1.5667    0.0000 O   0  0  0  0  0  0  0  0  0  0  0  0
    6.4917   -1.5792    0.0000 C   0  0  0  0  0  0  0  0  0  0  0  0
    5.7792   -1.1667    0.0000 C   0  0  0  0  0  0  0  0  0  0  0  0
    6.4917   -2.4042    0.0000 C   0  0  0  0  0  0  0  0  0  0  0  0
    0.7750   -4.0500    0.0000 O   0  0  0  0  0  0  0  0  0  0  0  0
    7.2125   -1.1667    0.0000 O   0  0  0  0  0  0  0  0  0  0  0  0
    7.9250   -1.5792    0.0000 C   0  0  0  0  0  0  0  0  0  0  0  0
  2  1  1  0
  3  1  1  0
  4  2  2  0
  5  3  2  0
  6  2  1  0
  7  5  1  0
  8  4  1  0
  9  6  2  0
 10  3  1  0
 11  1  2  0
 12  9  1  0
 13 10  2  0
 14 10  1  0
 15  6  1  0
 16 18  1  0
 17 13  1  0
 18 14  2  0
 19 12  1  0
 20 16  1  0
 21 20  1  0
  4  7  1  0
 17 16  2  0
 12  8  2  0
M  END
>  <ID>  (2120) 


>  <MOLENAME>  (2120) 
BIOCHANIN A

>  <therap>  (2120) 
phytoestrogen

>  <ref>  (2120) 
J Chem soc 1953: 1852

>  <cas#>  (2120) 
491-80-5

>  <source>  (2120) 
widely distributed in Leguminosae

>  <status>  (2120) 
experimental

>  <tradename>  (2120) 
nan

>  <SMILES>  (2120) 
COc1ccc(-c2coc3c(c(O)cc(O)c3)c2=O)cc1

>  <standardized_failed>  (2120) 
False

$$$$

     RDKit          2D

 23 24  0  0  0  0  0  0  0  0999 V2000
    4.1375   -0.6208    0.0000 C   0  0  0  0  0  0  0  0  0  0  0  0
    4.1375    0.2042    0.0000 C   0  0  0  0  0  0  0  0  0  0  0  0
    3.4208   -1.0333    0.0000 C   0  0  0  0  0  0  0  0  0  0  0  0
    3.4208    0.6167    0.0000 C   0  0  0  0  0  0  0  0  0  0  0  0
    2.7083    0.2042    0.0000 C   0  0  0  0  0  0  0  0  0  0  0  0
    2.7083   -0.6208    0.0000 C   0  0  0  0  0  0  0  0  0  0  0  0
    4.8542   -1.0417    0.0000 C   0  0  0  0  0  0  0  0  0  0  0  0
    4.8542   -1.8667    0.0000 C   0  0  0  0  0  0  0  0  0  0  0  0
    3.4208   -1.8583    0.0000 O   0  0  0  0  0  0  0  0  0  0  0  0
    3.4208    1.4417    0.0000 O   0  0  0  0  0  0  0  0  0  0  0  0
    5.5667   -2.2792    0.0000 C   0  0  0  0  0  0  0  0  0  0  0  0
    6.9917    0.1958    0.0000 C   0  0  0  0  0  0  0  0  0  0  0  0
    6.9917   -0.6292    0.0000 C   0  0  0  0  0  0  0  0  0  0  0  0
    4.8583    0.6167    0.0000 C   0  0  0  0  0  0  0  0  0  0  0  0
    6.2792   -1.0417    0.0000 C   0  0  0  0  0  0  0  0  0  0  0  0
    1.9958    0.6167    0.0000 C   0  0  0  0  0  0  0  0  0  0  0  0
    1.9958   -1.0333    0.0000 C   0  0  0  0  0  0  0  0  0  0  0  0
    6.2792   -1.8667    0.0000 C   0  0  0  0  0  0  0  0  0  0  0  0
    5.5667   -3.1125    0.0000 C   0  0  0  0  0  0  0  0  0  0  0  0
    6.2792    0.6083    0.0000 C   0  0  0  0  0  0  0  0  0  0  0  0
    7.7042    0.6083    0.0000 C   0  0  0  0  0  0  0  0  0  0  0  0
    1.2792   -0.6208    0.0000 C   0  0  0  0  0  0  0  0  0  0  0  0
    1.2792    0.2000    0.0000 C   0  0  0  0  0  0  0  0  0  0  0  0
  2  1  2  0
  3  1  1  0
  4  2  1  0
  5  4  1  0
  6  3  1  0
  7  1  1  0
  8  7  1  0
  9  3  2  0
 10  4  2  0
 11  8  2  0
 12 13  2  0
 13 15  1  0
 14  2  1  0
 15 18  1  0
 16  5  2  0
 17  6  2  0
 18 11  1  0
 19 11  1  0
 20 12  1  0
 21 12  1  0
 22 17  1  0
 23 16  1  0
  6  5  1  0
 22 23  2  0
M  END
>  <ID>  (2121) 


>  <MOLENAME>  (2121) 
MENAQUINONE-4

>  <therap>  (2121) 
antioxidant, alkaline phosphatase enhancer

>  <ref>  (2121) 
Biochem J 162:297 (1977); J Vasc Res 40:531 (2003)

>  <cas#>  (2121) 
nan

>  <source>  (2121) 
synthetic; VITAMIN K2

>  <status>  (2121) 
experimental

>  <tradename>  (2121) 
nan

>  <SMILES>  (2121) 
CC(C)=CCC/C(C)=C\CC1=C(C)C(=O)c2ccccc2C1=O

>  <standardized_failed>  (2121) 
False

$$$$

     RDKit          2D

 16 18  0  0  0  0  0  0  0  0999 V2000
    2.7917   -2.0500    0.0000 C   0  0  0  0  0  0  0  0  0  0  0  0
    3.5167   -1.6292    0.0000 C   0  0  0  0  0  0  0  0  0  0  0  0
    2.7917   -2.8792    0.0000 C   0  0  0  0  0  0  0  0  0  0  0  0
    3.5167   -0.8167    0.0000 O   0  0  0  0  0  0  0  0  0  0  0  0
    4.2292   -2.0500    0.0000 C   0  0  0  0  0  0  0  0  0  0  0  0
    3.5167   -3.2792    0.0000 C   0  0  0  0  0  0  0  0  0  0  0  0
    4.2292   -0.3917    0.0000 C   0  0  0  0  0  0  0  0  0  0  0  0
    4.9542   -1.6292    0.0000 C   0  0  0  0  0  0  0  0  0  0  0  0
    4.2292   -2.8792    0.0000 C   0  0  0  0  0  0  0  0  0  0  0  0
    4.9542   -0.8167    0.0000 C   0  0  0  0  0  0  0  0  0  0  0  0
    2.0167   -3.1292    0.0000 O   0  0  0  0  0  0  0  0  0  0  0  0
    2.0167   -1.7792    0.0000 C   0  0  0  0  0  0  0  0  0  0  0  0
    1.5292   -2.4750    0.0000 C   0  0  0  0  0  0  0  0  0  0  0  0
    4.2292    0.4458    0.0000 O   0  0  0  0  0  0  0  0  0  0  0  0
    3.5167   -4.1250    0.0000 O   0  0  0  0  0  0  0  0  0  0  0  0
    4.2292   -4.5417    0.0000 C   0  0  0  0  0  0  0  0  0  0  0  0
  2  1  2  0
  3  1  1  0
  4  2  1  0
  5  2  1  0
  6  3  2  0
  7  4  1  0
  8  5  1  0
  9  6  1  0
 10  8  2  0
 11  3  1  0
 12  1  1  0
 13 12  2  0
 14  7  2  0
 15  6  1  0
 16 15  1  0
 11 13  1  0
  9  5  2  0
  7 10  1  0
M  END
>  <ID>  (2122) 


>  <MOLENAME>  (2122) 
SPHONDIN

>  <therap>  (2122) 
nan

>  <ref>  (2122) 
Ber 74:595 (1941); Monatsh Chem 84:217 (1953)

>  <cas#>  (2122) 
483-66-9

>  <source>  (2122) 
Heracleum maximum root; mp 191-192 C

>  <status>  (2122) 
undetermined activity

>  <tradename>  (2122) 
nan

>  <SMILES>  (2122) 
COc1c2occc2c2oc(=O)ccc2c1

>  <standardized_failed>  (2122) 
False

$$$$

     RDKit          2D

 40 38  0  0  0  0  0  0  0  0999 V2000
   11.1292   -6.4042    0.0000 C   0  0  0  0  0  0  0  0  0  0  0  0
   11.8417   -5.9917    0.0000 C   0  0  0  0  0  0  0  0  0  0  0  0
    1.8667   -6.8417    0.0000 C   0  0  0  0  0  0  0  0  0  0  0  0
    1.8292   -4.2167    0.0000 C   0  0  0  0  0  0  0  0  0  0  0  0
   11.0917   -3.7792    0.0000 C   0  0  0  0  0  0  0  0  0  0  0  0
   11.8042   -3.3667    0.0000 C   0  0  0  0  0  0  0  0  0  0  0  0
    1.1542   -6.4375    0.0000 C   0  0  0  0  0  0  0  0  0  0  0  0
    1.1167   -3.8125    0.0000 C   0  0  0  0  0  0  0  0  0  0  0  0
    2.5792   -6.4292    0.0000 C   0  0  0  0  0  0  0  0  0  0  0  0
    2.5417   -3.8042    0.0000 C   0  0  0  0  0  0  0  0  0  0  0  0
   10.4167   -6.8125    0.0000 C   0  0  0  0  0  0  0  0  0  0  0  0
    1.1542   -5.6125    0.0000 O   0  0  0  0  0  0  0  0  0  0  0  0
    2.5792   -5.6042    0.0000 O   0  0  0  0  0  0  0  0  0  0  0  0
    1.1167   -2.9875    0.0000 O   0  0  0  0  0  0  0  0  0  0  0  0
    2.5417   -2.9792    0.0000 O   0  0  0  0  0  0  0  0  0  0  0  0
   -0.2708   -6.4375    0.0000 O   0  0  0  0  0  0  0  0  0  0  0  0
   -0.3083   -3.8125    0.0000 O   0  0  0  0  0  0  0  0  0  0  0  0
   10.3792   -4.1875    0.0000 C   0  0  0  0  0  0  0  0  0  0  0  0
    0.4417   -6.8500    0.0000 C   0  0  0  0  0  0  0  0  0  0  0  0
    0.4042   -4.2250    0.0000 C   0  0  0  0  0  0  0  0  0  0  0  0
    3.2917   -6.8417    0.0000 C   0  0  0  0  0  0  0  0  0  0  0  0
    3.2542   -4.2167    0.0000 C   0  0  0  0  0  0  0  0  0  0  0  0
    9.7042   -6.4125    0.0000 C   0  0  0  0  0  0  0  0  0  0  0  0
    9.6667   -3.7875    0.0000 C   0  0  0  0  0  0  0  0  0  0  0  0
    4.0042   -6.4292    0.0000 C   0  0  0  0  0  0  0  0  0  0  0  0
    3.9667   -3.8042    0.0000 C   0  0  0  0  0  0  0  0  0  0  0  0
    6.8542   -6.4167    0.0000 C   0  0  0  0  0  0  0  0  0  0  0  0
    7.5667   -6.8292    0.0000 C   0  0  0  0  0  0  0  0  0  0  0  0
    8.2792   -6.4167    0.0000 C   0  0  0  0  0  0  0  0  0  0  0  0
    8.9917   -6.8250    0.0000 C   0  0  0  0  0  0  0  0  0  0  0  0
    4.7167   -6.8375    0.0000 C   0  0  0  0  0  0  0  0  0  0  0  0
    5.4292   -6.4250    0.0000 C   0  0  0  0  0  0  0  0  0  0  0  0
    6.1417   -6.8292    0.0000 C   0  0  0  0  0  0  0  0  0  0  0  0
    8.9542   -4.1917    0.0000 C   0  0  0  0  0  0  0  0  0  0  0  0
    4.6792   -4.2125    0.0000 C   0  0  0  0  0  0  0  0  0  0  0  0
    5.3917   -3.8000    0.0000 C   0  0  0  0  0  0  0  0  0  0  0  0
    6.1042   -4.2042    0.0000 C   0  0  0  0  0  0  0  0  0  0  0  0
    6.8167   -3.7917    0.0000 C   0  0  0  0  0  0  0  0  0  0  0  0
    7.5292   -4.2042    0.0000 C   0  0  0  0  0  0  0  0  0  0  0  0
    8.2417   -3.7917    0.0000 C   0  0  0  0  0  0  0  0  0  0  0  0
  2  1  3  0
  3  9  1  0
  5 18  1  0
  6  5  2  0
  7  3  1  0
  8  4  1  0
  9 21  1  0
 10  4  1  0
 11  1  1  0
 12  7  1  0
 13  9  1  0
 14  8  1  0
 15 10  1  0
 16 19  1  0
 17 20  1  0
 18 24  1  0
 19  7  1  0
 20  8  1  0
 21 25  1  0
 22 10  1  0
 23 11  1  0
 24 34  1  0
 25 31  1  0
 26 22  1  0
 27 28  1  0
 28 29  1  0
 29 30  1  0
 30 23  1  0
 31 32  1  0
 32 33  1  0
 33 27  1  0
 34 40  1  0
 35 26  1  0
 36 35  1  0
 37 36  1  0
 38 37  1  0
 39 38  1  0
 40 39  1  0
M  END
>  <ID>  (2123) 


>  <MOLENAME>  (2123) 
AVOCATIN B

>  <therap>  (2123) 
nan

>  <ref>  (2123) 
An Acad Brasil Cienc 42 (suplemento): 45 (1970)

>  <cas#>  (2123) 
nan

>  <source>  (2123) 
Persea spp

>  <status>  (2123) 
experimental

>  <tradename>  (2123) 
nan

>  <SMILES>  (2123) 
C#CCCCCCCCCCCCC(O)CC(O)CO.C=CCCCCCCCCCCCC(O)CC(O)CO

>  <standardized_failed>  (2123) 
False

$$$$

     RDKit          2D

 51 58  0  0  0  0  0  0  0  0999 V2000
    7.1667   -3.3917    0.0000 C   0  0  0  0  0  0  0  0  0  0  0  0
    7.2542   -2.5667    0.0000 C   0  0  0  0  0  0  0  0  0  0  0  0
    6.4542   -3.8000    0.0000 C   0  0  0  0  0  0  0  0  0  0  0  0
    5.0250   -3.7917    0.0000 C   0  0  0  0  0  0  0  0  0  0  0  0
    6.6250   -2.6042    0.0000 O   0  0  0  0  0  0  0  0  0  0  0  0
    4.3167   -5.0292    0.0000 C   0  0  0  0  0  0  0  0  0  0  0  0
    5.7417   -3.3792    0.0000 C   0  0  0  0  0  0  0  0  0  0  0  0
    8.0667   -2.4000    0.0000 C   0  0  0  0  0  0  0  0  0  0  0  0
    5.0250   -4.6167    0.0000 C   0  0  0  0  0  0  0  0  0  0  0  0
    5.8250   -2.5792    0.0000 C   0  0  0  0  0  0  0  0  0  0  0  0
    5.7375   -5.0292    0.0000 C   0  0  0  0  0  0  0  0  0  0  0  0
    8.8875   -2.4000    0.0000 C   0  0  0  0  0  0  0  0  0  0  0  0
    7.9167   -3.7292    0.0000 C   0  0  0  0  0  0  0  0  0  0  0  0
    6.4542   -4.6250    0.0000 C   0  0  0  0  0  0  0  0  0  0  0  0
    4.3167   -3.3792    0.0000 C   0  0  0  0  0  0  0  0  0  0  0  0
    3.6042   -4.6167    0.0000 C   0  0  0  0  0  0  0  0  0  0  0  0
    9.3000   -3.1125    0.0000 C   0  0  0  0  0  0  0  0  0  0  0  0
    8.7167   -3.9417    0.0000 O   0  0  0  0  0  0  0  0  0  0  0  0
    4.9792   -2.3917    0.0000 O   0  0  0  0  0  0  0  0  0  0  0  0
    5.5750   -5.9167    0.0000 O   0  0  0  0  0  0  0  0  0  0  0  0
    8.4750   -3.1167    0.0000 C   0  0  0  0  0  0  0  0  0  0  0  0
    2.9792   -2.6375    0.0000 C   0  0  0  0  0  0  0  0  0  0  0  0
    4.6042   -3.0417    0.0000 C   0  0  0  0  0  0  0  0  0  0  0  0
    3.7292   -5.6125    0.0000 C   0  0  0  0  0  0  0  0  0  0  0  0
    4.6667   -5.9167    0.0000 C   0  0  0  0  0  0  0  0  0  0  0  0
    3.6042   -3.7917    0.0000 C   0  0  0  0  0  0  0  0  0  0  0  0
    5.6042   -1.7750    0.0000 C   0  0  0  0  0  0  0  0  0  0  0  0
    3.9542   -2.6375    0.0000 O   0  0  0  0  0  0  0  0  0  0  0  0
    9.4417   -1.7875    0.0000 C   0  0  0  0  0  0  0  0  0  0  0  0
    2.8917   -5.0292    0.0000 O   0  0  0  0  0  0  0  0  0  0  0  0
    2.5417   -1.9417    0.0000 C   0  0  0  0  0  0  0  0  0  0  0  0
   10.1000   -2.9417    0.0000 O   0  0  0  0  0  0  0  0  0  0  0  0
   10.1917   -2.1250    0.0000 C   0  0  0  0  0  0  0  0  0  0  0  0
    2.1792   -4.6125    0.0000 C   0  0  0  0  0  0  0  0  0  0  0  0
    2.6417   -3.3542    0.0000 O   0  0  0  0  0  0  0  0  0  0  0  0
    4.0792   -6.2625    0.0000 O   0  0  0  0  0  0  0  0  0  0  0  0
    6.1875   -1.1875    0.0000 O   0  0  0  0  0  0  0  0  0  0  0  0
    6.4042   -1.9875    0.0000 O   0  0  0  0  0  0  0  0  0  0  0  0
    7.0417   -1.7667    0.0000 C   0  0  0  0  0  0  0  0  0  0  0  0
    2.1792   -3.7875    0.0000 O   0  0  0  0  0  0  0  0  0  0  0  0
    1.7167   -1.9750    0.0000 C   0  0  0  0  0  0  0  0  0  0  0  0
    8.4667   -1.6792    0.0000 O   0  0  0  0  0  0  0  0  0  0  0  0
    7.1667   -5.0375    0.0000 O   0  0  0  0  0  0  0  0  0  0  0  0
    6.2625   -2.9500    0.0000 C   0  0  0  0  0  0  0  0  0  0  0  0
    2.9792   -5.6375    0.0000 O   0  0  0  0  0  0  0  0  0  0  0  0
    4.8042   -1.5625    0.0000 O   0  0  0  0  0  0  0  0  0  0  0  0
    2.9250   -1.2125    0.0000 C   0  0  0  0  0  0  0  0  0  0  0  0
    1.4625   -5.0167    0.0000 C   0  0  0  0  0  0  0  0  0  0  0  0
    1.2792   -1.2792    0.0000 C   0  0  0  0  0  0  0  0  0  0  0  0
    2.6292   -6.2917    0.0000 C   0  0  0  0  0  0  0  0  0  0  0  0
    4.5917   -0.7667    0.0000 C   0  0  0  0  0  0  0  0  0  0  0  0
  2  1  1  0
  3  1  1  0
  4  7  1  0
  5  1  1  0
  6  9  1  0
  7  3  1  0
  8  2  1  0
  9 11  1  0
  7 10  1  1
 11 14  1  0
 12  8  1  0
 13  1  1  0
 14  3  1  0
 15  4  1  0
 16  6  1  0
 17 18  1  0
 13 18  1  6
 19 10  1  0
 11 20  1  6
 13 21  1  0
 22 28  1  0
  4 23  1  1
  6 24  1  1
 25 20  1  0
 26 15  1  0
 10 27  1  0
 15 28  1  6
 29 12  1  0
 16 30  1  6
 31 22  1  0
 32 17  1  0
 33 32  1  0
 34 30  1  0
 35 22  2  0
 36 24  2  0
 37 27  2  0
 10 38  1  1
  2 39  1  6
 40 34  2  0
 41 31  2  0
 12 42  1  6
 14 43  1  6
  3 44  1  1
 45 24  1  0
 46 27  1  0
 47 31  1  0
 48 34  1  0
 49 41  1  0
 50 45  1  0
 51 46  1  0
  5  2  1  0
  8 21  1  1
 17 12  1  0
  9  4  1  0
 23 19  1  0
 33 29  2  0
  6 25  1  0
 16 26  1  0
M  END
>  <ID>  (2124) 


>  <MOLENAME>  (2124) 
AZADIRACHTIN

>  <therap>  (2124) 
antifeedant, insecticide

>  <ref>  (2124) 
Phytochemistry 12: 391 (1973)

>  <cas#>  (2124) 
11141-17-6

>  <source>  (2124) 
Melia azadirach and Azadirachta indica

>  <status>  (2124) 
experimental

>  <tradename>  (2124) 
nan

>  <SMILES>  (2124) 
C/C=C(\C)C(=O)O[C@H]1C[C@@H](OC(C)=O)[C@@]2(C(=O)OC)CO[C@@H]3C2[C@]12CO[C@](O)(C(=O)OC)[C@H]2[C@](C)(C12O[C@@]1(C)[C@H]1C[C@@H]2OC2OC=C[C@@]21O)[C@@H]3O

>  <standardized_failed>  (2124) 
False

$$$$

     RDKit          2D

 18 19  0  0  0  0  0  0  0  0999 V2000
    3.1042  -17.7375    0.0000 C   0  0  0  0  0  0  0  0  0  0  0  0
    3.1042  -16.9042    0.0000 C   0  0  0  0  0  0  0  0  0  0  0  0
    3.8167  -18.1417    0.0000 C   0  0  0  0  0  0  0  0  0  0  0  0
    3.8167  -18.9667    0.0000 C   0  0  0  0  0  0  0  0  0  0  0  0
    2.3792  -16.4917    0.0000 C   0  0  0  0  0  0  0  0  0  0  0  0
    2.3792  -18.1500    0.0000 C   0  0  0  0  0  0  0  0  0  0  0  0
    4.5292  -19.3750    0.0000 C   0  0  0  0  0  0  0  0  0  0  0  0
    4.5292  -17.7292    0.0000 O   0  0  0  0  0  0  0  0  0  0  0  0
    1.6750  -16.9125    0.0000 C   0  0  0  0  0  0  0  0  0  0  0  0
    3.8167  -16.4917    0.0000 O   0  0  0  0  0  0  0  0  0  0  0  0
    1.6750  -17.7375    0.0000 C   0  0  0  0  0  0  0  0  0  0  0  0
    4.5292  -20.1917    0.0000 C   0  0  0  0  0  0  0  0  0  0  0  0
    0.9625  -16.5000    0.0000 O   0  0  0  0  0  0  0  0  0  0  0  0
    3.8125  -20.6042    0.0000 C   0  0  0  0  0  0  0  0  0  0  0  0
    5.2292  -20.6000    0.0000 C   0  0  0  0  0  0  0  0  0  0  0  0
    5.2375  -21.4167    0.0000 C   0  0  0  0  0  0  0  0  0  0  0  0
    3.8125  -21.4167    0.0000 C   0  0  0  0  0  0  0  0  0  0  0  0
    4.5250  -21.8292    0.0000 C   0  0  0  0  0  0  0  0  0  0  0  0
  2  1  2  0
  3  1  1  0
  4  3  1  0
  5  2  1  0
  6  1  1  0
  7  4  2  0
  8  3  2  0
  9 11  1  0
 10  2  1  0
 11  6  2  0
 12  7  1  0
 13  9  1  0
 14 12  2  0
 15 12  1  0
 16 15  2  0
 17 14  1  0
 18 16  1  0
  9  5  2  0
 18 17  2  0
M  END
>  <ID>  (2125) 


>  <MOLENAME>  (2125) 
2'.4'-DIHYDROXYCHALCONE

>  <therap>  (2125) 
anthelmintic, antiulcer

>  <ref>  (2125) 
J Chem Soc 1937:1737; Tetrahedron 27:2111 (1971); Planta Med 58:389 (1992)

>  <cas#>  (2125) 
1776-30-3

>  <source>  (2125) 
Flemingia chappar, Ceratiola ericoides, Acacia neovernicosa, Flourensia spp

>  <status>  (2125) 
experimental

>  <tradename>  (2125) 
nan

>  <SMILES>  (2125) 
O=C(/C=C/c1ccccc1)c1c(O)cc(O)cc1

>  <standardized_failed>  (2125) 
False

$$$$

     RDKit          2D

 18 20  0  0  0  0  0  0  0  0999 V2000
    8.8667   -1.2167    0.0000 C   0  0  0  0  0  0  0  0  0  0  0  0
    8.8667   -2.0417    0.0000 C   0  0  0  0  0  0  0  0  0  0  0  0
    7.4417   -1.2292    0.0000 C   0  0  0  0  0  0  0  0  0  0  0  0
    8.1542   -0.8125    0.0000 O   0  0  0  0  0  0  0  0  0  0  0  0
    8.1542   -2.4542    0.0000 C   0  0  0  0  0  0  0  0  0  0  0  0
    7.4417   -2.0542    0.0000 C   0  0  0  0  0  0  0  0  0  0  0  0
    6.7292   -0.8167    0.0000 C   0  0  0  0  0  0  0  0  0  0  0  0
    6.7375   -2.4625    0.0000 C   0  0  0  0  0  0  0  0  0  0  0  0
    9.5792   -0.8042    0.0000 C   0  0  0  0  0  0  0  0  0  0  0  0
    8.1625   -3.2792    0.0000 O   0  0  0  0  0  0  0  0  0  0  0  0
    6.0167   -1.2417    0.0000 C   0  0  0  0  0  0  0  0  0  0  0  0
    6.0250   -2.0542    0.0000 C   0  0  0  0  0  0  0  0  0  0  0  0
    5.3000   -0.8292    0.0000 O   0  0  0  0  0  0  0  0  0  0  0  0
   10.2917   -1.2167    0.0000 C   0  0  0  0  0  0  0  0  0  0  0  0
    9.5750    0.0125    0.0000 C   0  0  0  0  0  0  0  0  0  0  0  0
   10.2875    0.4333    0.0000 C   0  0  0  0  0  0  0  0  0  0  0  0
   11.0042   -0.8042    0.0000 C   0  0  0  0  0  0  0  0  0  0  0  0
   11.0042    0.0208    0.0000 C   0  0  0  0  0  0  0  0  0  0  0  0
  2  1  2  0
  3  4  1  0
  4  1  1  0
  5  2  1  0
  6  3  2  0
  7  3  1  0
  8  6  1  0
  9  1  1  0
 10  5  2  0
 11  7  2  0
 12 11  1  0
 13 11  1  0
 14  9  2  0
 15  9  1  0
 16 15  2  0
 17 14  1  0
 18 16  1  0
  6  5  1  0
 17 18  2  0
 12  8  2  0
M  END
>  <ID>  (2126) 


>  <MOLENAME>  (2126) 
7-HYDROXYFLAVONE

>  <therap>  (2126) 
antifungal, analgesic

>  <ref>  (2126) 
Mycol Res 101:920 (1997); Indian J Exp Biol 38:1172 (2000); Chem Pharm Bull 52:1255 (2004)

>  <cas#>  (2126) 
6665-86-7

>  <source>  (2126) 
Virola spp

>  <status>  (2126) 
experimental

>  <tradename>  (2126) 
nan

>  <SMILES>  (2126) 
O=c1cc(-c2ccccc2)oc2c1ccc(O)c2

>  <standardized_failed>  (2126) 
False

$$$$

     RDKit          2D

 24 25  0  0  0  0  0  0  0  0999 V2000
    5.0375   -4.4375    0.0000 C   0  0  0  0  0  0  0  0  0  0  0  0
    5.0375   -3.6125    0.0000 C   0  0  0  0  0  0  0  0  0  0  0  0
    4.3167   -4.8542    0.0000 C   0  0  0  0  0  0  0  0  0  0  0  0
    5.7542   -4.8500    0.0000 C   0  0  0  0  0  0  0  0  0  0  0  0
    6.4667   -4.4292    0.0000 C   0  0  0  0  0  0  0  0  0  0  0  0
    4.3167   -3.2000    0.0000 C   0  0  0  0  0  0  0  0  0  0  0  0
    3.6042   -4.4417    0.0000 C   0  0  0  0  0  0  0  0  0  0  0  0
    8.6000   -3.1792    0.0000 C   0  0  0  0  0  0  0  0  0  0  0  0
    6.4625   -3.6042    0.0000 C   0  0  0  0  0  0  0  0  0  0  0  0
    3.6042   -3.6125    0.0000 C   0  0  0  0  0  0  0  0  0  0  0  0
    8.5917   -2.3542    0.0000 C   0  0  0  0  0  0  0  0  0  0  0  0
    7.8875   -3.6000    0.0000 C   0  0  0  0  0  0  0  0  0  0  0  0
    5.7542   -5.6750    0.0000 O   0  0  0  0  0  0  0  0  0  0  0  0
    7.1667   -3.1875    0.0000 C   0  0  0  0  0  0  0  0  0  0  0  0
    7.8750   -1.9500    0.0000 C   0  0  0  0  0  0  0  0  0  0  0  0
    5.7500   -3.1917    0.0000 O   0  0  0  0  0  0  0  0  0  0  0  0
    4.3250   -5.6792    0.0000 O   0  0  0  0  0  0  0  0  0  0  0  0
    7.1667   -2.3667    0.0000 C   0  0  0  0  0  0  0  0  0  0  0  0
    9.3167   -3.5917    0.0000 O   0  0  0  0  0  0  0  0  0  0  0  0
    9.3042   -1.9375    0.0000 O   0  0  0  0  0  0  0  0  0  0  0  0
    2.8917   -3.2042    0.0000 O   0  0  0  0  0  0  0  0  0  0  0  0
    3.6125   -6.0917    0.0000 C   0  0  0  0  0  0  0  0  0  0  0  0
    9.3167   -4.4167    0.0000 C   0  0  0  0  0  0  0  0  0  0  0  0
    2.1792   -3.6167    0.0000 C   0  0  0  0  0  0  0  0  0  0  0  0
  2  1  2  0
  3  1  1  0
  4  1  1  0
  5  4  1  0
  6  2  1  0
  7  3  2  0
  8 12  2  0
  9  5  2  0
 10  7  1  0
 11 15  2  0
 12 14  1  0
 13  4  2  0
 14  9  1  0
 15 18  1  0
 16  2  1  0
 17  3  1  0
 18 14  2  0
 19  8  1  0
 20 11  1  0
 21 10  1  0
 22 17  1  0
 23 19  1  0
 24 21  1  0
 10  6  2  0
 11  8  1  0
M  END
>  <ID>  (2127) 


>  <MOLENAME>  (2127) 
2'.4-DIHYDROXY-3.4'.6'-TRIMETHOXYCHALCONE

>  <therap>  (2127) 
nan

>  <ref>  (2127) 
Annalen 550:146 (1942); Planta 95:133 (1970); Phytochemistry 13:1561 (1974)

>  <cas#>  (2127) 
112572-59-5

>  <source>  (2127) 
Viscum album (glucoside)

>  <status>  (2127) 
undetermined activity

>  <tradename>  (2127) 
nan

>  <SMILES>  (2127) 
COc1cc(O)c(C(=O)/C=C/c2ccc(O)c(OC)c2)c(OC)c1

>  <standardized_failed>  (2127) 
False

$$$$

     RDKit          2D

 46 44  0  0  0  0  0  0  0  0999 V2000
   11.5375   -6.7292    0.0000 C   0  0  0  0  0  0  0  0  0  0  0  0
   12.2500   -6.3167    0.0000 C   0  0  0  0  0  0  0  0  0  0  0  0
    0.1375   -5.9375    0.0000 C   0  0  0  0  0  0  0  0  0  0  0  0
    0.0417   -3.1917    0.0000 C   0  0  0  0  0  0  0  0  0  0  0  0
    0.8500   -5.5250    0.0000 O   0  0  0  0  0  0  0  0  0  0  0  0
    0.7542   -2.7792    0.0000 O   0  0  0  0  0  0  0  0  0  0  0  0
    0.1375   -6.7625    0.0000 O   0  0  0  0  0  0  0  0  0  0  0  0
    0.0417   -4.0167    0.0000 O   0  0  0  0  0  0  0  0  0  0  0  0
    2.2750   -7.1667    0.0000 C   0  0  0  0  0  0  0  0  0  0  0  0
    2.1792   -4.4167    0.0000 C   0  0  0  0  0  0  0  0  0  0  0  0
   11.4417   -3.9792    0.0000 C   0  0  0  0  0  0  0  0  0  0  0  0
   12.1542   -3.5667    0.0000 C   0  0  0  0  0  0  0  0  0  0  0  0
    0.8500   -7.1750    0.0000 C   0  0  0  0  0  0  0  0  0  0  0  0
    0.7542   -4.4292    0.0000 C   0  0  0  0  0  0  0  0  0  0  0  0
    1.5625   -6.7625    0.0000 C   0  0  0  0  0  0  0  0  0  0  0  0
    1.4667   -4.0167    0.0000 C   0  0  0  0  0  0  0  0  0  0  0  0
    2.9875   -6.7542    0.0000 C   0  0  0  0  0  0  0  0  0  0  0  0
    2.8917   -4.0042    0.0000 C   0  0  0  0  0  0  0  0  0  0  0  0
   10.8250   -7.1417    0.0000 C   0  0  0  0  0  0  0  0  0  0  0  0
    1.5625   -5.9375    0.0000 O   0  0  0  0  0  0  0  0  0  0  0  0
    1.4667   -3.1917    0.0000 O   0  0  0  0  0  0  0  0  0  0  0  0
    2.9875   -5.9292    0.0000 O   0  0  0  0  0  0  0  0  0  0  0  0
    2.8917   -3.1792    0.0000 O   0  0  0  0  0  0  0  0  0  0  0  0
   -0.5833   -5.5167    0.0000 C   0  0  0  0  0  0  0  0  0  0  0  0
   -0.6833   -2.7667    0.0000 C   0  0  0  0  0  0  0  0  0  0  0  0
   10.7292   -4.3917    0.0000 C   0  0  0  0  0  0  0  0  0  0  0  0
    3.7000   -7.1667    0.0000 C   0  0  0  0  0  0  0  0  0  0  0  0
    3.6042   -4.4167    0.0000 C   0  0  0  0  0  0  0  0  0  0  0  0
   10.1125   -6.7375    0.0000 C   0  0  0  0  0  0  0  0  0  0  0  0
   10.0167   -3.9917    0.0000 C   0  0  0  0  0  0  0  0  0  0  0  0
    4.4125   -6.7542    0.0000 C   0  0  0  0  0  0  0  0  0  0  0  0
    4.3167   -4.0042    0.0000 C   0  0  0  0  0  0  0  0  0  0  0  0
    7.9750   -7.1542    0.0000 C   0  0  0  0  0  0  0  0  0  0  0  0
    8.6875   -6.7417    0.0000 C   0  0  0  0  0  0  0  0  0  0  0  0
    9.4000   -7.1500    0.0000 C   0  0  0  0  0  0  0  0  0  0  0  0
    5.1250   -7.1625    0.0000 C   0  0  0  0  0  0  0  0  0  0  0  0
    5.8375   -6.7500    0.0000 C   0  0  0  0  0  0  0  0  0  0  0  0
    6.5500   -7.1542    0.0000 C   0  0  0  0  0  0  0  0  0  0  0  0
    7.2625   -6.7417    0.0000 C   0  0  0  0  0  0  0  0  0  0  0  0
    8.5917   -3.9917    0.0000 C   0  0  0  0  0  0  0  0  0  0  0  0
    9.3042   -4.4042    0.0000 C   0  0  0  0  0  0  0  0  0  0  0  0
    5.0292   -4.4167    0.0000 C   0  0  0  0  0  0  0  0  0  0  0  0
    5.7417   -4.0042    0.0000 C   0  0  0  0  0  0  0  0  0  0  0  0
    6.4542   -4.4042    0.0000 C   0  0  0  0  0  0  0  0  0  0  0  0
    7.1667   -3.9917    0.0000 C   0  0  0  0  0  0  0  0  0  0  0  0
    7.8792   -4.4042    0.0000 C   0  0  0  0  0  0  0  0  0  0  0  0
  2  1  3  0
  3  7  1  0
  5  3  2  0
  6  4  2  0
  7 13  1  0
  8  4  1  0
  9 17  1  0
 10 16  1  0
 11 26  1  0
 12 11  2  0
 13 15  1  0
 14  8  1  0
 15  9  1  0
 16 14  1  0
 17 27  1  0
 18 10  1  0
 19  1  1  0
 20 15  1  0
 21 16  1  0
 22 17  1  0
 23 18  1  0
 24  3  1  0
 25  4  1  0
 26 30  1  0
 27 31  1  0
 28 18  1  0
 29 19  1  0
 30 41  1  0
 31 36  1  0
 32 28  1  0
 33 34  1  0
 34 35  1  0
 35 29  1  0
 36 37  1  0
 37 38  1  0
 38 39  1  0
 39 33  1  0
 40 46  1  0
 41 40  1  0
 42 32  1  0
 43 42  1  0
 44 43  1  0
 45 44  1  0
 46 45  1  0
M  END
>  <ID>  (2128) 


>  <MOLENAME>  (2128) 
AVOCATIN A

>  <therap>  (2128) 
antibacterial, antifungal

>  <ref>  (2128) 
An Acad Brasil Cienc 42 (suplemento): 45 (1970)

>  <cas#>  (2128) 
nan

>  <source>  (2128) 
Persea spp

>  <status>  (2128) 
experimental

>  <tradename>  (2128) 
nan

>  <SMILES>  (2128) 
C#CCCCCCCCCCCCC(O)CC(O)COC(C)=O.C=CCCCCCCCCCCCC(O)CC(O)COC(C)=O

>  <standardized_failed>  (2128) 
False

$$$$

     RDKit          2D

 32 34  0  0  0  0  0  0  0  0999 V2000
    7.8875   -1.4500    0.0000 N   0  0  0  0  0  0  0  0  0  0  0  0
    7.4792   -0.7292    0.0000 C   0  0  0  0  0  0  0  0  0  0  0  0
    6.5792   -1.7167    0.0000 N   0  0  0  0  0  0  0  0  0  0  0  0
    6.6750   -0.8917    0.0000 C   0  0  0  0  0  0  0  0  0  0  0  0
    7.3292   -2.0542    0.0000 C   0  0  0  0  0  0  0  0  0  0  0  0
    2.2792   -4.1417    0.0000 C   0  0  0  0  0  0  0  0  0  0  0  0
    2.9917   -2.9042    0.0000 C   0  0  0  0  0  0  0  0  0  0  0  0
    2.2792   -3.3167    0.0000 C   0  0  0  0  0  0  0  0  0  0  0  0
    7.7417    0.0458    0.0000 C   0  0  0  0  0  0  0  0  0  0  0  0
    6.1292   -0.2792    0.0000 N   0  0  0  0  0  0  0  0  0  0  0  0
    1.5667   -4.5542    0.0000 C   0  0  0  0  0  0  0  0  0  0  0  0
    7.2000    0.6625    0.0000 N   0  0  0  0  0  0  0  0  0  0  0  0
    2.9917   -4.5542    0.0000 C   0  0  0  0  0  0  0  0  0  0  0  0
    3.0000   -2.0792    0.0000 C   0  0  0  0  0  0  0  0  0  0  0  0
    5.8625   -2.1167    0.0000 C   0  0  0  0  0  0  0  0  0  0  0  0
    6.3917    0.4958    0.0000 C   0  0  0  0  0  0  0  0  0  0  0  0
    5.1542   -1.7000    0.0000 C   0  0  0  0  0  0  0  0  0  0  0  0
    3.7042   -3.3292    0.0000 C   0  0  0  0  0  0  0  0  0  0  0  0
    4.4292   -2.1000    0.0000 C   0  0  0  0  0  0  0  0  0  0  0  0
    0.8625   -4.1417    0.0000 C   0  0  0  0  0  0  0  0  0  0  0  0
    3.7042   -4.1500    0.0000 C   0  0  0  0  0  0  0  0  0  0  0  0
   10.1000   -1.2292    0.0000 Cl  0  0  0  0  0  0  0  0  0  0  0  0
    8.7042   -1.5417    0.0000 C   0  0  0  0  0  0  0  0  0  0  0  0
    3.7250   -1.6792    0.0000 C   0  0  0  0  0  0  0  0  0  0  0  0
    8.5542    0.2083    0.0000 N   0  0  0  0  0  0  0  0  0  0  0  0
    2.2750   -4.9667    0.0000 C   0  0  0  0  0  0  0  0  0  0  0  0
    1.5667   -2.9042    0.0000 C   0  0  0  0  0  0  0  0  0  0  0  0
    2.9917   -3.7292    0.0000 C   0  0  0  0  0  0  0  0  0  0  0  0
    0.8625   -3.3167    0.0000 C   0  0  0  0  0  0  0  0  0  0  0  0
    1.5750   -5.3792    0.0000 C   0  0  0  0  0  0  0  0  0  0  0  0
    4.4167   -2.9250    0.0000 C   0  0  0  0  0  0  0  0  0  0  0  0
    4.5292   -3.3292    0.0000 C   0  0  0  0  0  0  0  0  0  0  0  0
  2  1  1  0
  3  5  1  0
  4  2  2  0
  5  1  2  0
  6  8  1  0
  7 14  1  0
  8  7  1  0
  9  2  1  0
 10  4  1  0
 11  6  1  0
 12  9  2  0
 13 21  1  0
 14 24  1  0
 15  3  1  0
 16 12  1  0
 17 15  1  0
 18  7  1  0
 19 17  2  0
 20 29  1  0
 21 18  1  0
 23  1  1  0
 24 19  1  0
 25  9  1  0
 26  6  1  0
 27  8  1  0
 28  7  1  0
 29 27  1  0
 30 11  1  0
 31 19  1  0
 32 18  1  0
  3  4  1  0
 10 16  2  0
 13  6  1  0
 20 11  2  0
M  CHG  2   1   1  22  -1
M  END
>  <ID>  (2129) 


>  <MOLENAME>  (2129) 
AGELASINE (stereochemistry of diterpene unknown)

>  <therap>  (2129) 
cytotoxic, antineoplastic

>  <ref>  (2129) 
Can J Chem 53:1690 (1975)

>  <cas#>  (2129) 
nan

>  <source>  (2129) 
Agelas dispar

>  <status>  (2129) 
experimental

>  <tradename>  (2129) 
nan

>  <SMILES>  (2129) 
CC1=CCCC2C1(C)CCC(C)C2(C)CC/C(C)=C/Cn1c[n+](C)c2c1ncnc2N

>  <standardized_failed>  (2129) 
False

$$$$

     RDKit          2D

 18 20  0  0  0  0  0  0  0  0999 V2000
    0.1292    0.6208    0.0000 C   0  0  0  0  0  0  0  0  0  0  0  0
    1.0792    0.0500    0.0000 C   0  0  0  0  0  0  0  0  0  0  0  0
   -0.8333    0.0500    0.0000 C   0  0  0  0  0  0  0  0  0  0  0  0
   -0.8333   -1.0542    0.0000 C   0  0  0  0  0  0  0  0  0  0  0  0
    0.1292   -1.6000    0.0000 C   0  0  0  0  0  0  0  0  0  0  0  0
    1.0792   -1.0542    0.0000 C   0  0  0  0  0  0  0  0  0  0  0  0
    0.1292    1.7333    0.0000 O   0  0  0  0  0  0  0  0  0  0  0  0
    2.0375    0.6208    0.0000 C   0  0  0  0  0  0  0  0  0  0  0  0
    1.0792    2.2708    0.0000 C   0  0  0  0  0  0  0  0  0  0  0  0
    2.0375    1.7333    0.0000 C   0  0  0  0  0  0  0  0  0  0  0  0
   -1.8833   -1.3792    0.0000 O   0  0  0  0  0  0  0  0  0  0  0  0
   -1.8833    0.4125    0.0000 C   0  0  0  0  0  0  0  0  0  0  0  0
   -2.5333   -0.4875    0.0000 C   0  0  0  0  0  0  0  0  0  0  0  0
    1.0792    3.3833    0.0000 O   0  0  0  0  0  0  0  0  0  0  0  0
    0.1292   -2.7042    0.0000 O   0  0  0  0  0  0  0  0  0  0  0  0
    2.0542   -1.6167    0.0000 O   0  0  0  0  0  0  0  0  0  0  0  0
    1.0792   -3.2500    0.0000 C   0  0  0  0  0  0  0  0  0  0  0  0
    2.0542   -2.7292    0.0000 C   0  0  0  0  0  0  0  0  0  0  0  0
  2  1  1  0
  3  1  2  0
  4  3  1  0
  5  4  2  0
  6  2  2  0
  7  1  1  0
  8  2  1  0
  9  7  1  0
 10  9  1  0
 11  4  1  0
 12  3  1  0
 13 12  2  0
 14  9  2  0
 15  5  1  0
 16  6  1  0
 17 15  1  0
 18 16  1  0
  6  5  1  0
  8 10  2  0
 13 11  1  0
M  END
>  <ID>  (2130) 


>  <MOLENAME>  (2130) 
PIMPINELLIN

>  <therap>  (2130) 
GABA receptor antagonist, phototoxin

>  <ref>  (2130) 
Monatsh 59: 161 (1932); J Org Chem 35: 2294 (1970)

>  <cas#>  (2130) 
131-12-4

>  <source>  (2130) 
Heracleum maximum root; mp 118-119 C

>  <status>  (2130) 
experimental

>  <tradename>  (2130) 
nan

>  <SMILES>  (2130) 
COc1c2ccc(=O)oc2c2ccoc2c1OC

>  <standardized_failed>  (2130) 
False

$$$$

     RDKit          2D

 13 14  0  0  0  0  0  0  0  0999 V2000
    5.7292   -4.2542    0.0000 C   0  0  0  0  0  0  0  0  0  0  0  0
    5.7292   -3.4292    0.0000 C   0  0  0  0  0  0  0  0  0  0  0  0
    6.4417   -4.6667    0.0000 C   0  0  0  0  0  0  0  0  0  0  0  0
    6.4417   -3.0167    0.0000 C   0  0  0  0  0  0  0  0  0  0  0  0
    7.1542   -4.2542    0.0000 C   0  0  0  0  0  0  0  0  0  0  0  0
    7.1542   -3.4292    0.0000 C   0  0  0  0  0  0  0  0  0  0  0  0
    5.0167   -4.6667    0.0000 C   0  0  0  0  0  0  0  0  0  0  0  0
    6.4417   -5.4917    0.0000 O   0  0  0  0  0  0  0  0  0  0  0  0
    6.4417   -2.1917    0.0000 O   0  0  0  0  0  0  0  0  0  0  0  0
    5.0167   -5.4917    0.0000 O   0  0  0  0  0  0  0  0  0  0  0  0
    5.0167   -3.0167    0.0000 C   0  0  0  0  0  0  0  0  0  0  0  0
    4.3000   -3.4292    0.0000 C   0  0  0  0  0  0  0  0  0  0  0  0
    4.3000   -4.2542    0.0000 C   0  0  0  0  0  0  0  0  0  0  0  0
  2  1  2  0
  3  1  1  0
  4  2  1  0
  5  3  1  0
  6  5  2  0
  7  1  1  0
  8  3  2  0
  9  4  2  0
 10  7  1  0
 11  2  1  0
 12 13  1  0
 13  7  2  0
 12 11  2  0
  6  4  1  0
M  END
>  <ID>  (2131) 


>  <MOLENAME>  (2131) 
JUGLONE

>  <therap>  (2131) 
antineoplastic, antifungal

>  <ref>  (2131) 
nan

>  <cas#>  (2131) 
481-39-0

>  <source>  (2131) 
leaves and nuts of Juglans spp., Carya spp and Pterocarya spp.

>  <status>  (2131) 
experimental

>  <tradename>  (2131) 
nan

>  <SMILES>  (2131) 
O=C1C=CC(=O)c2c1cccc2O

>  <standardized_failed>  (2131) 
False

$$$$

     RDKit          2D

 14 15  0  0  0  0  0  0  0  0999 V2000
    3.8250   -2.8667    0.0000 C   0  0  0  0  0  0  0  0  0  0  0  0
    4.6042   -2.6042    0.0000 C   0  0  0  0  0  0  0  0  0  0  0  0
    3.8292   -3.6917    0.0000 C   0  0  0  0  0  0  0  0  0  0  0  0
    3.1042   -2.4542    0.0000 C   0  0  0  0  0  0  0  0  0  0  0  0
    5.1000   -3.2750    0.0000 O   0  0  0  0  0  0  0  0  0  0  0  0
    2.3917   -2.8750    0.0000 C   0  0  0  0  0  0  0  0  0  0  0  0
    3.1042   -4.1125    0.0000 C   0  0  0  0  0  0  0  0  0  0  0  0
    2.3917   -3.7000    0.0000 C   0  0  0  0  0  0  0  0  0  0  0  0
    4.6167   -3.9417    0.0000 C   0  0  0  0  0  0  0  0  0  0  0  0
    4.8542   -1.8250    0.0000 O   0  0  0  0  0  0  0  0  0  0  0  0
    1.6792   -2.4542    0.0000 O   0  0  0  0  0  0  0  0  0  0  0  0
    1.6792   -4.1042    0.0000 O   0  0  0  0  0  0  0  0  0  0  0  0
    1.6792   -1.6292    0.0000 C   0  0  0  0  0  0  0  0  0  0  0  0
    1.6667   -4.9292    0.0000 C   0  0  0  0  0  0  0  0  0  0  0  0
  2  1  1  0
  3  1  2  0
  4  1  1  0
  5  2  1  0
  6  4  2  0
  7  3  1  0
  8  6  1  0
  9  3  1  0
 10  2  2  0
 11  6  1  0
 12  8  1  0
 13 11  1  0
 14 12  1  0
  5  9  1  0
  8  7  2  0
M  END
>  <ID>  (2132) 


>  <MOLENAME>  (2132) 
METAMECONINE

>  <therap>  (2132) 
nan

>  <ref>  (2132) 
nan

>  <cas#>  (2132) 
nan

>  <source>  (2132) 
Accacia crombei

>  <status>  (2132) 
undetermined activity

>  <tradename>  (2132) 
nan

>  <SMILES>  (2132) 
COc1cc2c(cc1OC)C(=O)OC2

>  <standardized_failed>  (2132) 
False

$$$$

     RDKit          2D

 18 20  0  0  0  0  0  0  0  0999 V2000
    4.0667   -1.5167    0.0000 C   0  0  0  0  0  0  0  0  0  0  0  0
    4.7875   -1.9292    0.0000 C   0  0  0  0  0  0  0  0  0  0  0  0
    3.3542   -1.9292    0.0000 C   0  0  0  0  0  0  0  0  0  0  0  0
    4.7875   -2.7542    0.0000 C   0  0  0  0  0  0  0  0  0  0  0  0
    3.3542   -2.7542    0.0000 C   0  0  0  0  0  0  0  0  0  0  0  0
    5.5000   -1.5167    0.0000 C   0  0  0  0  0  0  0  0  0  0  0  0
    4.0667   -3.1750    0.0000 C   0  0  0  0  0  0  0  0  0  0  0  0
    4.0667   -0.6917    0.0000 O   0  0  0  0  0  0  0  0  0  0  0  0
    5.5000   -3.1667    0.0000 C   0  0  0  0  0  0  0  0  0  0  0  0
    6.2125   -1.9292    0.0000 C   0  0  0  0  0  0  0  0  0  0  0  0
    2.6417   -1.5167    0.0000 C   0  0  0  0  0  0  0  0  0  0  0  0
    6.2125   -2.7542    0.0000 C   0  0  0  0  0  0  0  0  0  0  0  0
    5.4917   -0.6917    0.0000 O   0  0  0  0  0  0  0  0  0  0  0  0
    2.6417   -3.1750    0.0000 C   0  0  0  0  0  0  0  0  0  0  0  0
    2.6375   -0.6917    0.0000 O   0  0  0  0  0  0  0  0  0  0  0  0
    1.9292   -2.7625    0.0000 C   0  0  0  0  0  0  0  0  0  0  0  0
    1.9292   -1.9375    0.0000 C   0  0  0  0  0  0  0  0  0  0  0  0
    6.9292   -3.1667    0.0000 C   0  0  0  0  0  0  0  0  0  0  0  0
  2  1  1  0
  3  1  1  0
  4  2  2  0
  5  3  2  0
  6  2  1  0
  7  5  1  0
  8  1  2  0
  9  4  1  0
 10  6  2  0
 11  3  1  0
 12 10  1  0
 13  6  1  0
 14  5  1  0
 15 11  1  0
 16 17  1  0
 17 11  2  0
 18 12  1  0
  4  7  1  0
 16 14  2  0
 12  9  2  0
M  END
>  <ID>  (2133) 


>  <MOLENAME>  (2133) 
CHRYSAROBIN

>  <therap>  (2133) 
nan

>  <ref>  (2133) 
J Am Chem Soc 53: 4114 (1931)

>  <cas#>  (2133) 
491-58-7

>  <source>  (2133) 
Andira araroba ( glacial AcOH)

>  <status>  (2133) 
undetermined activity

>  <tradename>  (2133) 
nan

>  <SMILES>  (2133) 
Cc1cc2c(C(=O)c3c(cccc3O)C2)c(O)c1

>  <standardized_failed>  (2133) 
False

$$$$

     RDKit          2D

 31 33  0  0  0  0  0  0  0  0999 V2000
   -0.2333   -3.0167    0.0000 C   0  0  0  0  0  0  0  0  0  0  0  0
   -0.2333   -3.8417    0.0000 C   0  0  0  0  0  0  0  0  0  0  0  0
   -0.9500   -4.2542    0.0000 C   0  0  0  0  0  0  0  0  0  0  0  0
    1.2000   -1.2542    0.0000 C   0  0  0  0  0  0  0  0  0  0  0  0
   -0.9500   -2.6042    0.0000 O   0  0  0  0  0  0  0  0  0  0  0  0
    0.4875   -1.6667    0.0000 C   0  0  0  0  0  0  0  0  0  0  0  0
   -1.6708   -3.8417    0.0000 C   0  0  0  0  0  0  0  0  0  0  0  0
    1.2000   -0.4292    0.0000 C   0  0  0  0  0  0  0  0  0  0  0  0
   -1.6708   -3.0167    0.0000 C   0  0  0  0  0  0  0  0  0  0  0  0
    0.4875   -2.6042    0.0000 O   0  0  0  0  0  0  0  0  0  0  0  0
   -0.2208   -1.2542    0.0000 C   0  0  0  0  0  0  0  0  0  0  0  0
    0.4875   -0.0167    0.0000 C   0  0  0  0  0  0  0  0  0  0  0  0
    1.9167   -1.6667    0.0000 C   0  0  0  0  0  0  0  0  0  0  0  0
   -0.2208   -0.4292    0.0000 C   0  0  0  0  0  0  0  0  0  0  0  0
    1.9125   -2.4917    0.0000 O   0  0  0  0  0  0  0  0  0  0  0  0
    2.6292   -1.2542    0.0000 C   0  0  0  0  0  0  0  0  0  0  0  0
    0.4875   -4.2542    0.0000 O   0  0  0  0  0  0  0  0  0  0  0  0
   -0.9458   -5.0917    0.0000 O   0  0  0  0  0  0  0  0  0  0  0  0
   -2.3833   -4.2542    0.0000 O   0  0  0  0  0  0  0  0  0  0  0  0
    1.9167   -0.0167    0.0000 O   0  0  0  0  0  0  0  0  0  0  0  0
    4.0542   -1.2625    0.0000 C   0  0  0  0  0  0  0  0  0  0  0  0
    5.4917   -0.4417    0.0000 C   0  0  0  0  0  0  0  0  0  0  0  0
    3.3417   -1.6667    0.0000 C   0  0  0  0  0  0  0  0  0  0  0  0
   -2.3833   -2.6042    0.0000 C   0  0  0  0  0  0  0  0  0  0  0  0
   -0.9375   -0.0167    0.0000 O   0  0  0  0  0  0  0  0  0  0  0  0
    5.4792   -1.2667    0.0000 C   0  0  0  0  0  0  0  0  0  0  0  0
    4.7750   -0.0292    0.0000 C   0  0  0  0  0  0  0  0  0  0  0  0
    4.0542   -0.4375    0.0000 C   0  0  0  0  0  0  0  0  0  0  0  0
    4.7667   -1.6792    0.0000 C   0  0  0  0  0  0  0  0  0  0  0  0
    6.2042   -0.0292    0.0000 O   0  0  0  0  0  0  0  0  0  0  0  0
   -3.0125   -3.1417    0.0000 O   0  0  0  0  0  0  0  0  0  0  0  0
  2  1  1  0
  3  2  1  0
  4  6  1  0
  5  1  1  0
  6 10  1  0
  7  9  1  0
  8  4  2  0
  9  5  1  0
  1 10  1  1
 11  6  2  0
 12 14  2  0
 13  4  1  0
 14 11  1  0
 15 13  2  0
 16 13  1  0
  2 17  1  6
  3 18  1  1
  7 19  1  6
 20  8  1  0
 21 23  1  0
 22 26  2  0
 23 16  1  0
  9 24  1  1
 25 14  1  0
 26 29  1  0
 27 28  2  0
 28 21  1  0
 29 21  2  0
 30 22  1  0
 31 24  1  0
  3  7  1  0
  8 12  1  0
 27 22  1  0
M  END
>  <ID>  (2134) 


>  <MOLENAME>  (2134) 
PHLORIDZIN

>  <therap>  (2134) 
induces experimental glucosuria, antifeedant

>  <ref>  (2134) 
J Chem Soc 1933: 1170; Physiol Rev 25: 255 (1945)

>  <cas#>  (2134) 
60-81-1

>  <source>  (2134) 
Rosaceae spp

>  <status>  (2134) 
experimental

>  <tradename>  (2134) 
nan

>  <SMILES>  (2134) 
O=C(CCc1ccc(O)cc1)c1c(O)cc(O)cc1O[C@@H]1O[C@H](CO)[C@@H](O)[C@H](O)[C@H]1O

>  <standardized_failed>  (2134) 
False

$$$$

     RDKit          2D

 26 29  0  0  0  0  0  0  0  0999 V2000
    6.5667   -3.5250    0.0000 C   0  0  0  0  0  0  0  0  0  0  0  0
    5.8542   -3.9417    0.0000 C   0  0  0  0  0  0  0  0  0  0  0  0
    6.5667   -2.6917    0.0000 C   0  0  0  0  0  0  0  0  0  0  0  0
    5.1417   -3.5292    0.0000 C   0  0  0  0  0  0  0  0  0  0  0  0
    5.1417   -2.7042    0.0000 C   0  0  0  0  0  0  0  0  0  0  0  0
    5.8500   -2.2875    0.0000 O   0  0  0  0  0  0  0  0  0  0  0  0
    7.2792   -3.9292    0.0000 C   0  0  0  0  0  0  0  0  0  0  0  0
    4.4250   -3.9417    0.0000 C   0  0  0  0  0  0  0  0  0  0  0  0
    4.4250   -2.2917    0.0000 C   0  0  0  0  0  0  0  0  0  0  0  0
    7.9917   -3.5167    0.0000 C   0  0  0  0  0  0  0  0  0  0  0  0
    8.7042   -3.9167    0.0000 C   0  0  0  0  0  0  0  0  0  0  0  0
    3.7125   -3.5292    0.0000 C   0  0  0  0  0  0  0  0  0  0  0  0
    7.2792   -2.2792    0.0000 O   0  0  0  0  0  0  0  0  0  0  0  0
    8.7167   -4.7500    0.0000 C   0  0  0  0  0  0  0  0  0  0  0  0
    9.4917   -3.6542    0.0000 O   0  0  0  0  0  0  0  0  0  0  0  0
    3.7125   -2.7042    0.0000 C   0  0  0  0  0  0  0  0  0  0  0  0
    9.5042   -5.0000    0.0000 O   0  0  0  0  0  0  0  0  0  0  0  0
    7.2875   -4.7542    0.0000 C   0  0  0  0  0  0  0  0  0  0  0  0
    9.9875   -4.3167    0.0000 C   0  0  0  0  0  0  0  0  0  0  0  0
    5.8542   -4.7667    0.0000 O   0  0  0  0  0  0  0  0  0  0  0  0
    8.0000   -5.1667    0.0000 C   0  0  0  0  0  0  0  0  0  0  0  0
    4.4292   -4.7667    0.0000 O   0  0  0  0  0  0  0  0  0  0  0  0
    3.0000   -2.2917    0.0000 O   0  0  0  0  0  0  0  0  0  0  0  0
    6.5750   -5.1750    0.0000 C   0  0  0  0  0  0  0  0  0  0  0  0
    3.7167   -5.1875    0.0000 C   0  0  0  0  0  0  0  0  0  0  0  0
    3.0042   -1.4667    0.0000 C   0  0  0  0  0  0  0  0  0  0  0  0
  2  1  2  0
  3  1  1  0
  4  2  1  0
  5  6  1  0
  6  3  1  0
  7  1  1  0
  8  4  2  0
  9  5  2  0
 10  7  2  0
 11 10  1  0
 12  8  1  0
 13  3  2  0
 14 21  1  0
 15 11  1  0
 16  9  1  0
 17 14  1  0
 18  7  1  0
 19 15  1  0
 20  2  1  0
 21 18  2  0
 22  8  1  0
 23 16  1  0
 24 20  1  0
 25 22  1  0
 26 23  1  0
  4  5  1  0
 14 11  2  0
 19 17  1  0
 16 12  2  0
M  END
>  <ID>  (2135) 


>  <MOLENAME>  (2135) 
DERRUSNIN

>  <therap>  (2135) 
nan

>  <ref>  (2135) 
J Chem Soc 1969:365

>  <cas#>  (2135) 
14736-62-0

>  <source>  (2135) 
Derris robusta

>  <status>  (2135) 
undetermined activity

>  <tradename>  (2135) 
nan

>  <SMILES>  (2135) 
COc1cc(OC)c2c(OC)c(-c3cc4c(cc3)OCO4)c(=O)oc2c1

>  <standardized_failed>  (2135) 
False

$$$$

     RDKit          2D

 12 12  0  0  0  0  0  0  0  0999 V2000
    4.0750   -1.2792    0.0000 C   0  0  0  0  0  0  0  0  0  0  0  0
    4.0750   -2.1042    0.0000 C   0  0  0  0  0  0  0  0  0  0  0  0
    3.3542   -2.5167    0.0000 C   0  0  0  0  0  0  0  0  0  0  0  0
    3.3542   -0.8667    0.0000 C   0  0  0  0  0  0  0  0  0  0  0  0
    4.7875   -0.8625    0.0000 C   0  0  0  0  0  0  0  0  0  0  0  0
    4.7792   -0.0292    0.0000 O   0  0  0  0  0  0  0  0  0  0  0  0
    2.6417   -2.1042    0.0000 C   0  0  0  0  0  0  0  0  0  0  0  0
    2.6417   -1.2792    0.0000 C   0  0  0  0  0  0  0  0  0  0  0  0
    4.7917   -2.5167    0.0000 O   0  0  0  0  0  0  0  0  0  0  0  0
    1.9292   -2.5167    0.0000 O   0  0  0  0  0  0  0  0  0  0  0  0
    5.5042   -1.2667    0.0000 C   0  0  0  0  0  0  0  0  0  0  0  0
    4.7917   -3.3417    0.0000 C   0  0  0  0  0  0  0  0  0  0  0  0
  2  1  2  0
  3  2  1  0
  4  1  1  0
  5  1  1  0
  6  5  2  0
  7  8  1  0
  8  4  2  0
  9  2  1  0
 10  7  1  0
 11  5  1  0
 12  9  1  0
  3  7  2  0
M  END
>  <ID>  (2136) 


>  <MOLENAME>  (2136) 
ISOPEONOL

>  <therap>  (2136) 
nan

>  <ref>  (2136) 
nan

>  <cas#>  (2136) 
493-33-4

>  <source>  (2136) 
Paeonia spp

>  <status>  (2136) 
undetermined activity

>  <tradename>  (2136) 
nan

>  <SMILES>  (2136) 
COc1c(C(C)=O)ccc(O)c1

>  <standardized_failed>  (2136) 
False

$$$$

     RDKit          2D

 14 14  0  0  0  0  0  0  0  0999 V2000
    4.5750   -2.5750    0.0000 C   0  0  0  0  0  0  0  0  0  0  0  0
    4.5750   -1.7417    0.0000 C   0  0  0  0  0  0  0  0  0  0  0  0
    3.8542   -1.3292    0.0000 C   0  0  0  0  0  0  0  0  0  0  0  0
    5.2917   -2.9875    0.0000 C   0  0  0  0  0  0  0  0  0  0  0  0
    3.8542   -2.9875    0.0000 C   0  0  0  0  0  0  0  0  0  0  0  0
    3.1417   -1.7500    0.0000 C   0  0  0  0  0  0  0  0  0  0  0  0
    5.2917   -3.8125    0.0000 O   0  0  0  0  0  0  0  0  0  0  0  0
    3.1417   -2.5750    0.0000 C   0  0  0  0  0  0  0  0  0  0  0  0
    5.2875   -1.3292    0.0000 O   0  0  0  0  0  0  0  0  0  0  0  0
    3.8542   -0.5042    0.0000 O   0  0  0  0  0  0  0  0  0  0  0  0
    6.0042   -2.5667    0.0000 O   0  0  0  0  0  0  0  0  0  0  0  0
    2.4292   -1.3375    0.0000 O   0  0  0  0  0  0  0  0  0  0  0  0
    4.5667   -0.0917    0.0000 C   0  0  0  0  0  0  0  0  0  0  0  0
    1.7167   -1.7500    0.0000 C   0  0  0  0  0  0  0  0  0  0  0  0
  2  1  2  0
  3  2  1  0
  4  1  1  0
  5  1  1  0
  6  8  1  0
  7  4  2  0
  8  5  2  0
  9  2  1  0
 10  3  1  0
 11  4  1  0
 12  6  1  0
 13 10  1  0
 14 12  1  0
  6  3  2  0
M  END
>  <ID>  (2137) 


>  <MOLENAME>  (2137) 
2-HYDROXY-3.4-DIMETHOXYBENZOIC ACID

>  <therap>  (2137) 
prostaglandin synthetase inhibitor

>  <ref>  (2137) 
nan

>  <cas#>  (2137) 
5653-46-3

>  <source>  (2137) 
Dalbergia odorifera

>  <status>  (2137) 
experimental

>  <tradename>  (2137) 
nan

>  <SMILES>  (2137) 
COc1c(OC)c(O)c(C(=O)O)cc1

>  <standardized_failed>  (2137) 
False

$$$$

     RDKit          2D

 16 16  0  0  0  0  0  0  0  0999 V2000
    0.4000    1.3125    0.0000 C   0  0  0  0  0  0  0  0  0  0  0  0
    0.4000    0.4833    0.0000 C   0  0  0  0  0  0  0  0  0  0  0  0
    1.1125    1.7250    0.0000 C   0  0  0  0  0  0  0  0  0  0  0  0
    3.9667    0.0833    0.0000 C   0  0  0  0  0  0  0  0  0  0  0  0
    3.2542    0.4875    0.0000 C   0  0  0  0  0  0  0  0  0  0  0  0
    2.5417    0.0750    0.0000 C   0  0  0  0  0  0  0  0  0  0  0  0
    1.8292    0.4833    0.0000 C   0  0  0  0  0  0  0  0  0  0  0  0
    1.1125    0.0708    0.0000 C   0  0  0  0  0  0  0  0  0  0  0  0
    1.8292    1.3125    0.0000 C   0  0  0  0  0  0  0  0  0  0  0  0
    3.9667   -0.7417    0.0000 O   0  0  0  0  0  0  0  0  0  0  0  0
   -0.3125    1.7208    0.0000 O   0  0  0  0  0  0  0  0  0  0  0  0
    1.1042    2.5500    0.0000 O   0  0  0  0  0  0  0  0  0  0  0  0
   -0.3208    0.0708    0.0000 O   0  0  0  0  0  0  0  0  0  0  0  0
    4.6792    0.4958    0.0000 O   0  0  0  0  0  0  0  0  0  0  0  0
   -1.0333    0.4833    0.0000 C   0  0  0  0  0  0  0  0  0  0  0  0
    0.3917    2.9583    0.0000 C   0  0  0  0  0  0  0  0  0  0  0  0
  2  1  2  0
  3  1  1  0
  4  5  1  0
  5  6  2  0
  6  7  1  0
  7  9  1  0
  8  2  1  0
  9  3  2  0
 10  4  2  0
 11  1  1  0
 12  3  1  0
 13  2  1  0
 14  4  1  0
 15 13  1  0
 16 12  1  0
  8  7  2  0
M  END
>  <ID>  (2138) 


>  <MOLENAME>  (2138) 
SINAPIC ACID

>  <therap>  (2138) 
nan

>  <ref>  (2138) 
nan

>  <cas#>  (2138) 
530-59-6

>  <source>  (2138) 
rapseed

>  <status>  (2138) 
undetermined activity

>  <tradename>  (2138) 
nan

>  <SMILES>  (2138) 
COc1c(O)c(OC)cc(/C=C/C(=O)O)c1

>  <standardized_failed>  (2138) 
False

$$$$

     RDKit          2D

 24 27  0  0  0  0  0  0  0  0999 V2000
    2.2417   -1.0417    0.0000 C   0  0  0  0  0  0  0  0  0  0  0  0
    1.5292   -0.6292    0.0000 C   0  0  0  0  0  0  0  0  0  0  0  0
    2.9667   -0.6250    0.0000 C   0  0  0  0  0  0  0  0  0  0  0  0
    1.5250    0.2000    0.0000 C   0  0  0  0  0  0  0  0  0  0  0  0
    2.9625    0.2083    0.0000 C   0  0  0  0  0  0  0  0  0  0  0  0
    0.8042   -1.0417    0.0000 C   0  0  0  0  0  0  0  0  0  0  0  0
    2.2375    0.6250    0.0000 O   0  0  0  0  0  0  0  0  0  0  0  0
    3.6792   -1.0375    0.0000 C   0  0  0  0  0  0  0  0  0  0  0  0
    0.8042    0.6125    0.0000 C   0  0  0  0  0  0  0  0  0  0  0  0
    5.1042   -1.0292    0.0000 C   0  0  0  0  0  0  0  0  0  0  0  0
    0.0917   -0.6292    0.0000 C   0  0  0  0  0  0  0  0  0  0  0  0
    4.3917   -0.6167    0.0000 C   0  0  0  0  0  0  0  0  0  0  0  0
    2.2500   -1.8667    0.0000 O   0  0  0  0  0  0  0  0  0  0  0  0
    5.1125   -1.8542    0.0000 C   0  0  0  0  0  0  0  0  0  0  0  0
    5.8875   -0.7667    0.0000 O   0  0  0  0  0  0  0  0  0  0  0  0
    0.0917    0.2000    0.0000 C   0  0  0  0  0  0  0  0  0  0  0  0
    5.9000   -2.1042    0.0000 O   0  0  0  0  0  0  0  0  0  0  0  0
    6.3792   -1.4292    0.0000 C   0  0  0  0  0  0  0  0  0  0  0  0
    3.6792   -1.8625    0.0000 C   0  0  0  0  0  0  0  0  0  0  0  0
    4.3917   -2.2667    0.0000 C   0  0  0  0  0  0  0  0  0  0  0  0
    0.8042   -1.8667    0.0000 O   0  0  0  0  0  0  0  0  0  0  0  0
   -0.6208    0.6125    0.0000 O   0  0  0  0  0  0  0  0  0  0  0  0
    1.5292   -2.2792    0.0000 C   0  0  0  0  0  0  0  0  0  0  0  0
   -0.6208    1.4375    0.0000 C   0  0  0  0  0  0  0  0  0  0  0  0
  2  1  1  0
  3  1  1  0
  4  2  2  0
  5  3  2  0
  6  2  1  0
  7  5  1  0
  8  3  1  0
  9  4  1  0
 10 12  2  0
 11  6  2  0
 12  8  1  0
 13  1  2  0
 14 20  2  0
 15 10  1  0
 16 11  1  0
 17 14  1  0
 18 15  1  0
 19  8  2  0
 20 19  1  0
 21  6  1  0
 22 16  1  0
 23 21  1  0
 24 22  1  0
  7  4  1  0
 16  9  2  0
 14 10  1  0
 18 17  1  0
M  END
>  <ID>  (2139) 


>  <MOLENAME>  (2139) 
DERRUSTONE

>  <therap>  (2139) 
nan

>  <ref>  (2139) 
J Chem Soc 1959: 2679; Phytochemistry 7: 701 (1968); 11: 1089 (1972)

>  <cas#>  (2139) 
2204-59-3

>  <source>  (2139) 
Derris robusta

>  <status>  (2139) 
undetermined activity

>  <tradename>  (2139) 
nan

>  <SMILES>  (2139) 
COc1cc2c(c(OC)c1)c(=O)c(-c1ccc3OCOc3c1)co2

>  <standardized_failed>  (2139) 
False

$$$$

     RDKit          2D

 23 26  0  0  0  0  0  0  0  0999 V2000
    5.6167   -3.5167    0.0000 C   0  0  0  0  0  0  0  0  0  0  0  0
    4.7792   -3.7917    0.0000 C   0  0  0  0  0  0  0  0  0  0  0  0
    6.4667   -3.4167    0.0000 C   0  0  0  0  0  0  0  0  0  0  0  0
    5.6292   -4.2667    0.0000 O   0  0  0  0  0  0  0  0  0  0  0  0
    4.0625   -3.3292    0.0000 C   0  0  0  0  0  0  0  0  0  0  0  0
    7.0500   -4.0000    0.0000 C   0  0  0  0  0  0  0  0  0  0  0  0
    3.5917   -3.9542    0.0000 C   0  0  0  0  0  0  0  0  0  0  0  0
    4.2167   -4.4542    0.0000 C   0  0  0  0  0  0  0  0  0  0  0  0
    6.0292   -5.0042    0.0000 C   0  0  0  0  0  0  0  0  0  0  0  0
    7.8417   -3.7875    0.0000 C   0  0  0  0  0  0  0  0  0  0  0  0
    5.0917   -2.8917    0.0000 C   0  0  0  0  0  0  0  0  0  0  0  0
    6.7417   -2.7667    0.0000 C   0  0  0  0  0  0  0  0  0  0  0  0
    6.8292   -4.7917    0.0000 C   0  0  0  0  0  0  0  0  0  0  0  0
    5.4667   -2.1042    0.0000 C   0  0  0  0  0  0  0  0  0  0  0  0
    4.0417   -2.5167    0.0000 C   0  0  0  0  0  0  0  0  0  0  0  0
    5.7042   -5.7625    0.0000 O   0  0  0  0  0  0  0  0  0  0  0  0
    8.0542   -2.9875    0.0000 O   0  0  0  0  0  0  0  0  0  0  0  0
    6.2792   -2.1042    0.0000 C   0  0  0  0  0  0  0  0  0  0  0  0
    4.5375   -2.1167    0.0000 C   0  0  0  0  0  0  0  0  0  0  0  0
    8.4292   -4.3667    0.0000 O   0  0  0  0  0  0  0  0  0  0  0  0
    3.0292   -3.3917    0.0000 C   0  0  0  0  0  0  0  0  0  0  0  0
    3.0625   -4.5167    0.0000 C   0  0  0  0  0  0  0  0  0  0  0  0
    5.4625   -1.2792    0.0000 C   0  0  0  0  0  0  0  0  0  0  0  0
  2  1  1  0
  3  1  1  0
  1  4  1  1
  5  2  1  0
  6  3  1  0
  7  8  1  0
  8  2  1  0
  9  4  1  0
 10  6  1  0
  1 11  1  0
 12  3  1  0
 13  9  1  0
 14 11  1  0
 15  5  1  0
 16  9  2  0
 17 10  2  0
 18 14  1  0
 19 14  1  0
 20 10  1  0
 21  7  1  0
 22  7  1  0
 14 23  1  1
 19 15  1  0
 18 12  1  0
 13  6  1  0
  7  5  1  0
M  END
>  <ID>  (2140) 


>  <MOLENAME>  (2140) 
3-HYDROXY-4-(SUCCIN-2-YL)-CARYOLANE delta-LACTONE

>  <therap>  (2140) 
nan

>  <ref>  (2140) 
nan

>  <cas#>  (2140) 
nan

>  <source>  (2140) 
derivative of caryophyllene

>  <status>  (2140) 
undetermined activity

>  <tradename>  (2140) 
nan

>  <SMILES>  (2140) 
CC1(C)CC2C1CC[C@]1(C)CCC3C(C(=O)O)CC(=O)O[C@@]32C1

>  <standardized_failed>  (2140) 
False

$$$$

     RDKit          2D

 10 11  0  0  0  0  0  0  0  0999 V2000
    0.5042   -3.6167    0.0000 N   0  0  0  0  0  0  0  0  0  0  0  0
    1.2625   -3.2917    0.0000 C   0  0  0  0  0  0  0  0  0  0  0  0
    1.2042   -2.4792    0.0000 C   0  0  0  0  0  0  0  0  0  0  0  0
    0.4042   -2.2917    0.0000 C   0  0  0  0  0  0  0  0  0  0  0  0
   -0.0208   -3.0167    0.0000 C   0  0  0  0  0  0  0  0  0  0  0  0
    1.8167   -1.9500    0.0000 C   0  0  0  0  0  0  0  0  0  0  0  0
   -0.0083   -1.5667    0.0000 C   0  0  0  0  0  0  0  0  0  0  0  0
   -0.8500   -3.0042    0.0000 C   0  0  0  0  0  0  0  0  0  0  0  0
   -0.8375   -1.5542    0.0000 C   0  0  0  0  0  0  0  0  0  0  0  0
   -1.2625   -2.2792    0.0000 C   0  0  0  0  0  0  0  0  0  0  0  0
  2  1  1  0
  3  2  2  0
  4  5  2  0
  5  1  1  0
  6  3  1  0
  7  4  1  0
  8  5  1  0
  9 10  1  0
 10  8  2  0
  3  4  1  0
  9  7  2  0
M  END
>  <ID>  (2141) 


>  <MOLENAME>  (2141) 
SKATOLE

>  <therap>  (2141) 
insect attractant

>  <ref>  (2141) 
nan

>  <cas#>  (2141) 
83-34-1

>  <source>  (2141) 
feces, beetroot, nectandra wood

>  <status>  (2141) 
experimental

>  <tradename>  (2141) 
nan

>  <SMILES>  (2141) 
Cc1c[nH]c2c1cccc2

>  <standardized_failed>  (2141) 
False

$$$$

     RDKit          2D

 21 23  0  0  0  0  0  0  0  0999 V2000
    4.3875   -1.6000    0.0000 C   0  0  0  0  0  0  0  0  0  0  0  0
    3.6750   -2.0167    0.0000 C   0  0  0  0  0  0  0  0  0  0  0  0
    2.9583   -1.6042    0.0000 C   0  0  0  0  0  0  0  0  0  0  0  0
    4.3833   -0.7708    0.0000 C   0  0  0  0  0  0  0  0  0  0  0  0
    3.6667   -0.3625    0.0000 O   0  0  0  0  0  0  0  0  0  0  0  0
    2.9583   -0.7792    0.0000 C   0  0  0  0  0  0  0  0  0  0  0  0
    2.2417   -2.0208    0.0000 C   0  0  0  0  0  0  0  0  0  0  0  0
    2.2417   -0.3667    0.0000 C   0  0  0  0  0  0  0  0  0  0  0  0
    1.5292   -1.6083    0.0000 C   0  0  0  0  0  0  0  0  0  0  0  0
    5.0917   -0.3542    0.0000 C   0  0  0  0  0  0  0  0  0  0  0  0
    3.6750   -2.8417    0.0000 O   0  0  0  0  0  0  0  0  0  0  0  0
    1.5292   -0.7792    0.0000 C   0  0  0  0  0  0  0  0  0  0  0  0
    5.1042   -2.0083    0.0000 O   0  0  0  0  0  0  0  0  0  0  0  0
    5.8083   -0.7667    0.0000 C   0  0  0  0  0  0  0  0  0  0  0  0
    5.0875    0.4667    0.0000 C   0  0  0  0  0  0  0  0  0  0  0  0
    2.2458   -2.8458    0.0000 O   0  0  0  0  0  0  0  0  0  0  0  0
    6.5167    0.4750    0.0000 C   0  0  0  0  0  0  0  0  0  0  0  0
    6.5208   -0.3500    0.0000 C   0  0  0  0  0  0  0  0  0  0  0  0
    5.7958    0.8833    0.0000 C   0  0  0  0  0  0  0  0  0  0  0  0
    0.8167   -0.3708    0.0000 O   0  0  0  0  0  0  0  0  0  0  0  0
    7.2292    0.8958    0.0000 O   0  0  0  0  0  0  0  0  0  0  0  0
  2  1  1  0
  3  2  1  0
  4  1  2  0
  5  4  1  0
  6  5  1  0
  7  3  2  0
  8  6  2  0
  9  7  1  0
 10  4  1  0
 11  2  2  0
 12  8  1  0
 13  1  1  0
 14 10  2  0
 15 10  1  0
 16  7  1  0
 17 19  1  0
 18 14  1  0
 19 15  2  0
 20 12  1  0
 21 17  1  0
  3  6  1  0
 17 18  2  0
  9 12  2  0
M  END
>  <ID>  (2142) 


>  <MOLENAME>  (2142) 
KAEMPFEROL

>  <therap>  (2142) 
nan

>  <ref>  (2142) 
J Agric Food Chem 54:2951 (2006); Am J Epidem 166: 924 (2007)

>  <cas#>  (2142) 
520-18-3

>  <source>  (2142) 
Citrus, Delphinium, Acacia, Alpinia spp.

>  <status>  (2142) 
undetermined activity

>  <tradename>  (2142) 
nan

>  <SMILES>  (2142) 
O=c1c(O)c(-c2ccc(O)cc2)oc2cc(O)cc(O)c12

>  <standardized_failed>  (2142) 
False

$$$$

     RDKit          2D

  9  9  0  0  0  0  0  0  0  0999 V2000
    3.9667   -1.6917    0.0000 C   0  0  0  0  0  0  0  0  0  0  0  0
    3.9667   -0.8667    0.0000 C   0  0  0  0  0  0  0  0  0  0  0  0
    4.6750   -0.4542    0.0000 C   0  0  0  0  0  0  0  0  0  0  0  0
    4.6750   -2.1042    0.0000 O   0  0  0  0  0  0  0  0  0  0  0  0
    3.2500   -2.1083    0.0000 O   0  0  0  0  0  0  0  0  0  0  0  0
    5.3875   -0.8667    0.0000 C   0  0  0  0  0  0  0  0  0  0  0  0
    5.3875   -1.6917    0.0000 C   0  0  0  0  0  0  0  0  0  0  0  0
    5.2542    0.1333    0.0000 O   0  0  0  0  0  0  0  0  0  0  0  0
    4.0875    0.1333    0.0000 C   0  0  0  0  0  0  0  0  0  0  0  0
  2  1  1  0
  3  2  1  0
  4  1  1  0
  5  1  2  0
  6  3  1  0
  7  4  1  0
  8  3  1  0
  9  3  1  0
  6  7  1  0
M  END
>  <ID>  (2143) 


>  <MOLENAME>  (2143) 
MEVALONIC ACID LACTONE

>  <therap>  (2143) 
nan

>  <ref>  (2143) 
JACS 78:5273 (1956)

>  <cas#>  (2143) 
503-48-0

>  <source>  (2143) 
common primary metabolite

>  <status>  (2143) 
undetermined activity

>  <tradename>  (2143) 
nan

>  <SMILES>  (2143) 
CC1(O)CCOC(=O)C1

>  <standardized_failed>  (2143) 
False

$$$$

     RDKit          2D

 34 40  0  0  0  0  0  0  0  0999 V2000
    3.3875   -2.2125    0.0000 C   0  0  0  0  0  0  0  0  0  0  0  0
    4.2250   -2.6917    0.0000 C   0  0  0  0  0  0  0  0  0  0  0  0
    2.5417   -2.6917    0.0000 C   0  0  0  0  0  0  0  0  0  0  0  0
    3.3875   -1.2500    0.0000 C   0  0  0  0  0  0  0  0  0  0  0  0
    3.3875   -3.1750    0.0000 O   0  0  0  0  0  0  0  0  0  0  0  0
    0.8667   -2.6917    0.0000 C   0  0  0  0  0  0  0  0  0  0  0  0
    1.7042   -2.2125    0.0000 C   0  0  0  0  0  0  0  0  0  0  0  0
    5.0667   -2.2125    0.0000 C   0  0  0  0  0  0  0  0  0  0  0  0
    0.8667   -3.6500    0.0000 C   0  0  0  0  0  0  0  0  0  0  0  0
    4.2250   -0.7750    0.0000 C   0  0  0  0  0  0  0  0  0  0  0  0
    2.5417   -3.6500    0.0000 C   0  0  0  0  0  0  0  0  0  0  0  0
    5.0667   -1.2500    0.0000 O   0  0  0  0  0  0  0  0  0  0  0  0
   -0.0583   -2.3917    0.0000 C   0  0  0  0  0  0  0  0  0  0  0  0
   -0.0583   -3.9500    0.0000 C   0  0  0  0  0  0  0  0  0  0  0  0
   -0.6125   -3.2000    0.0000 O   0  0  0  0  0  0  0  0  0  0  0  0
    1.7042   -4.1292    0.0000 C   0  0  0  0  0  0  0  0  0  0  0  0
    4.2250    0.1875    0.0000 C   0  0  0  0  0  0  0  0  0  0  0  0
   -0.2750   -1.4625    0.0000 C   0  0  0  0  0  0  0  0  0  0  0  0
    2.5417   -0.7750    0.0000 C   0  0  0  0  0  0  0  0  0  0  0  0
    0.8375   -1.7167    0.0000 C   0  0  0  0  0  0  0  0  0  0  0  0
    0.4417   -0.8000    0.0000 C   0  0  0  0  0  0  0  0  0  0  0  0
    1.7042   -1.2500    0.0000 C   0  0  0  0  0  0  0  0  0  0  0  0
    1.3417   -1.0750    0.0000 O   0  0  0  0  0  0  0  0  0  0  0  0
    5.9250   -2.6625    0.0000 O   0  0  0  0  0  0  0  0  0  0  0  0
    5.0417    0.7250    0.0000 C   0  0  0  0  0  0  0  0  0  0  0  0
    3.4042   -4.1292    0.0000 O   0  0  0  0  0  0  0  0  0  0  0  0
    3.4875    0.7875    0.0000 C   0  0  0  0  0  0  0  0  0  0  0  0
    4.7875    1.6583    0.0000 O   0  0  0  0  0  0  0  0  0  0  0  0
    3.8250    1.6875    0.0000 C   0  0  0  0  0  0  0  0  0  0  0  0
    0.2417    0.1583    0.0000 O   0  0  0  0  0  0  0  0  0  0  0  0
    2.5417   -1.7292    0.0000 C   0  0  0  0  0  0  0  0  0  0  0  0
    3.3667   -0.0500    0.0000 C   0  0  0  0  0  0  0  0  0  0  0  0
   -0.9750   -4.2792    0.0000 C   0  0  0  0  0  0  0  0  0  0  0  0
    0.2875   -4.8500    0.0000 C   0  0  0  0  0  0  0  0  0  0  0  0
  2  1  1  0
  3  1  1  0
  4  1  1  0
  1  5  1  1
  6  7  1  0
  7  3  1  0
  8  2  1  0
  9 16  1  1
 10  4  1  0
 11  3  1  0
 10 12  1  6
 13  6  1  0
  9 14  1  0
 15 13  1  0
 16 11  1  0
 10 17  1  0
 13 18  1  1
 19  4  1  0
  6 20  1  1
 21 23  1  0
 22 19  1  0
 23 20  1  0
 24  8  2  0
 25 17  2  0
 26 11  2  0
 27 17  1  0
 28 25  1  0
 29 27  2  0
 30 21  2  0
  3 31  1  1
  4 32  1  6
 33 14  1  0
 34 14  1  0
  2  5  1  1
  7 22  1  1
 12  8  1  0
  9  6  1  0
 28 29  1  0
 14 15  1  0
 18 21  1  0
M  END
>  <ID>  (2144) 


>  <MOLENAME>  (2144) 
LIMONIN

>  <therap>  (2144) 
nan

>  <ref>  (2144) 
JACS 62:1307 (1940); J Chem Soc 1961:255; Citrus Sci Technol 1:355 (1977)

>  <cas#>  (2144) 
1180-71-8

>  <source>  (2144) 
Citrus, Evodia, Dictamnus and Luvunga spp 

>  <status>  (2144) 
undetermined activity

>  <tradename>  (2144) 
nan

>  <SMILES>  (2144) 
CC1(C)O[C@H]2CC(=O)OC[C@@]23[C@H]1CC(=O)[C@]1(C)[C@@H]3CC[C@@]2(C)[C@H](c3cocc3)OC(=O)[C@H]3O[C@]321

>  <standardized_failed>  (2144) 
False

$$$$

     RDKit          2D

 21 23  0  0  0  0  0  0  0  0999 V2000
   -1.4625   -0.6167    0.0000 C   0  0  0  0  0  0  0  0  0  0  0  0
   -1.4625    0.2083    0.0000 C   0  0  0  0  0  0  0  0  0  0  0  0
   -2.1708   -1.0292    0.0000 O   0  0  0  0  0  0  0  0  0  0  0  0
   -2.8875    0.2083    0.0000 C   0  0  0  0  0  0  0  0  0  0  0  0
   -2.1750    0.6208    0.0000 C   0  0  0  0  0  0  0  0  0  0  0  0
   -2.8875   -0.6167    0.0000 C   0  0  0  0  0  0  0  0  0  0  0  0
   -0.7500   -1.0292    0.0000 C   0  0  0  0  0  0  0  0  0  0  0  0
   -3.6083    0.6208    0.0000 C   0  0  0  0  0  0  0  0  0  0  0  0
   -2.1750    1.4458    0.0000 O   0  0  0  0  0  0  0  0  0  0  0  0
   -0.0375   -0.6167    0.0000 C   0  0  0  0  0  0  0  0  0  0  0  0
   -3.6000   -1.0375    0.0000 C   0  0  0  0  0  0  0  0  0  0  0  0
   -4.3208    0.2000    0.0000 C   0  0  0  0  0  0  0  0  0  0  0  0
   -4.3208   -0.6292    0.0000 C   0  0  0  0  0  0  0  0  0  0  0  0
   -0.0458    0.2083    0.0000 O   0  0  0  0  0  0  0  0  0  0  0  0
   -0.7500   -1.8542    0.0000 C   0  0  0  0  0  0  0  0  0  0  0  0
   -5.0333    0.6125    0.0000 O   0  0  0  0  0  0  0  0  0  0  0  0
    0.6792   -1.0292    0.0000 C   0  0  0  0  0  0  0  0  0  0  0  0
   -0.7583    0.6208    0.0000 C   0  0  0  0  0  0  0  0  0  0  0  0
   -5.0375    1.4375    0.0000 C   0  0  0  0  0  0  0  0  0  0  0  0
   -0.0375   -2.2667    0.0000 C   0  0  0  0  0  0  0  0  0  0  0  0
    0.6792   -1.8542    0.0000 C   0  0  0  0  0  0  0  0  0  0  0  0
  2  1  2  0
  3  1  1  0
  4  6  2  0
  5  2  1  0
  6  3  1  0
  7  1  1  0
  8  4  1  0
  9  5  2  0
 10  7  2  0
 11  6  1  0
 12 13  1  0
 13 11  2  0
 14 10  1  0
 15  7  1  0
 16 12  1  0
 17 10  1  0
 18 14  1  0
 19 16  1  0
 20 15  2  0
 21 20  1  0
  5  4  1  0
 21 17  2  0
 12  8  2  0
M  END
>  <ID>  (2145) 


>  <MOLENAME>  (2145) 
6.2'-DIMETHOXYFLAVONE

>  <therap>  (2145) 
nan

>  <ref>  (2145) 
nan

>  <cas#>  (2145) 
nan

>  <source>  (2145) 
derivative

>  <status>  (2145) 
undetermined activity

>  <tradename>  (2145) 
nan

>  <SMILES>  (2145) 
COc1cc2c(cc1)oc(-c1c(OC)cccc1)cc2=O

>  <standardized_failed>  (2145) 
False

$$$$

     RDKit          2D

 10 10  0  0  0  0  0  0  0  0999 V2000
    3.1125   -0.6042    0.0000 C   0  0  0  0  0  0  0  0  0  0  0  0
    3.8250   -1.0250    0.0000 C   0  0  0  0  0  0  0  0  0  0  0  0
    2.4042   -1.0250    0.0000 C   0  0  0  0  0  0  0  0  0  0  0  0
    3.1125    0.2208    0.0000 O   0  0  0  0  0  0  0  0  0  0  0  0
    4.5417   -0.6125    0.0000 O   0  0  0  0  0  0  0  0  0  0  0  0
    1.6875   -0.6125    0.0000 O   0  0  0  0  0  0  0  0  0  0  0  0
    3.1125   -2.2542    0.0000 C   0  0  0  0  0  0  0  0  0  0  0  0
    2.4042   -1.8500    0.0000 C   0  0  0  0  0  0  0  0  0  0  0  0
    3.8250   -1.8500    0.0000 C   0  0  0  0  0  0  0  0  0  0  0  0
    3.8292    0.6333    0.0000 C   0  0  0  0  0  0  0  0  0  0  0  0
  2  1  2  0
  3  1  1  0
  4  1  1  0
  5  2  1  0
  6  3  1  0
  7  8  1  0
  8  3  2  0
  9  2  1  0
 10  4  1  0
  7  9  2  0
M  END
>  <ID>  (2146) 


>  <MOLENAME>  (2146) 
2-METHOXYRESORCINOL

>  <therap>  (2146) 
nan

>  <ref>  (2146) 
Phytochemistry 29:283 (1990)

>  <cas#>  (2146) 
29267-67-2

>  <source>  (2146) 
Peltophorum africanum

>  <status>  (2146) 
undetermined activity

>  <tradename>  (2146) 
nan

>  <SMILES>  (2146) 
COc1c(O)cccc1O

>  <standardized_failed>  (2146) 
False

$$$$

     RDKit          2D

 29 28  0  0  0  0  0  0  0  0999 V2000
   11.7292   -3.4792    0.0000 C   0  0  0  0  0  0  0  0  0  0  0  0
   11.0750   -3.7917    0.0000 C   0  0  0  0  0  0  0  0  0  0  0  0
    0.9500   -4.4167    0.0000 C   0  0  0  0  0  0  0  0  0  0  0  0
    0.3417   -4.7292    0.0000 C   0  0  0  0  0  0  0  0  0  0  0  0
   10.4750   -3.3792    0.0000 C   0  0  0  0  0  0  0  0  0  0  0  0
    1.5917   -4.7875    0.0000 C   0  0  0  0  0  0  0  0  0  0  0  0
    8.4875   -3.7417    0.0000 C   0  0  0  0  0  0  0  0  0  0  0  0
    2.7417   -3.4000    0.0000 C   0  0  0  0  0  0  0  0  0  0  0  0
    2.1417   -4.4292    0.0000 C   0  0  0  0  0  0  0  0  0  0  0  0
    9.8125   -3.7542    0.0000 C   0  0  0  0  0  0  0  0  0  0  0  0
    7.1625   -3.7292    0.0000 C   0  0  0  0  0  0  0  0  0  0  0  0
    3.9542   -3.3875    0.0000 C   0  0  0  0  0  0  0  0  0  0  0  0
    9.1542   -3.3667    0.0000 C   0  0  0  0  0  0  0  0  0  0  0  0
    2.1417   -3.7125    0.0000 C   0  0  0  0  0  0  0  0  0  0  0  0
    3.3167   -3.7625    0.0000 C   0  0  0  0  0  0  0  0  0  0  0  0
    7.8292   -3.3542    0.0000 C   0  0  0  0  0  0  0  0  0  0  0  0
    6.5167   -3.3625    0.0000 C   0  0  0  0  0  0  0  0  0  0  0  0
    4.6000   -3.7500    0.0000 C   0  0  0  0  0  0  0  0  0  0  0  0
    5.2375   -3.3750    0.0000 C   0  0  0  0  0  0  0  0  0  0  0  0
    5.8792   -3.7375    0.0000 C   0  0  0  0  0  0  0  0  0  0  0  0
   11.7875   -2.7542    0.0000 O   0  0  0  0  0  0  0  0  0  0  0  0
    0.3375   -5.5542    0.0000 O   0  0  0  0  0  0  0  0  0  0  0  0
   12.3292   -3.8917    0.0000 O   0  0  0  0  0  0  0  0  0  0  0  0
   -0.2458   -4.2917    0.0000 O   0  0  0  0  0  0  0  0  0  0  0  0
    2.7042   -4.7792    0.0000 C   0  0  0  0  0  0  0  0  0  0  0  0
    9.8042   -4.5042    0.0000 C   0  0  0  0  0  0  0  0  0  0  0  0
    7.1667   -4.4792    0.0000 C   0  0  0  0  0  0  0  0  0  0  0  0
    3.9542   -2.6375    0.0000 C   0  0  0  0  0  0  0  0  0  0  0  0
   -0.8500   -4.6042    0.0000 C   0  0  0  0  0  0  0  0  0  0  0  0
  2  1  1  0
  3  6  2  0
  4  3  1  0
  5  2  2  0
  6  9  1  0
  7 13  1  0
  8 15  2  0
  9 14  2  0
 10  5  1  0
 11 16  1  0
 12 18  2  0
 13 10  2  0
 14  8  1  0
 15 12  1  0
 16  7  2  0
 17 11  2  0
 18 19  1  0
 19 20  2  0
 20 17  1  0
 21  1  2  0
 22  4  2  0
 23  1  1  0
 24  4  1  0
 25  9  1  0
 26 10  1  0
 27 11  1  0
 28 12  1  0
 29 24  1  0
M  END
>  <ID>  (2147) 


>  <MOLENAME>  (2147) 
BIXIN

>  <therap>  (2147) 
nan

>  <ref>  (2147) 
Helv Chim Acta 40: 1242 (1957); J Chem Soc 1961: 1625; 1970: 235; J Food Sci 36: 861 (1971)

>  <cas#>  (2147) 
39937-23-0

>  <source>  (2147) 
Bixa orellana seeds

>  <status>  (2147) 
undetermined activity

>  <tradename>  (2147) 
nan

>  <SMILES>  (2147) 
COC(=O)/C=C/C(C)=C/C=C/C(C)=C/C=C/C=C(C)/C=C/C=C(C)/C=C/C(=O)O

>  <standardized_failed>  (2147) 
False

$$$$

     RDKit          2D

 28 31  0  0  0  0  0  0  0  0999 V2000
    2.1542   -0.8375    0.0000 C   0  0  0  0  0  0  0  0  0  0  0  0
    3.5792   -0.8417    0.0000 C   0  0  0  0  0  0  0  0  0  0  0  0
    2.8667   -0.4250    0.0000 C   0  0  0  0  0  0  0  0  0  0  0  0
    2.8667    0.4000    0.0000 C   0  0  0  0  0  0  0  0  0  0  0  0
    4.2917   -0.4292    0.0000 C   0  0  0  0  0  0  0  0  0  0  0  0
    3.5875    0.8083    0.0000 C   0  0  0  0  0  0  0  0  0  0  0  0
    2.1542   -1.6625    0.0000 C   0  0  0  0  0  0  0  0  0  0  0  0
    4.3000    0.3958    0.0000 C   0  0  0  0  0  0  0  0  0  0  0  0
    3.5792   -1.6625    0.0000 C   0  0  0  0  0  0  0  0  0  0  0  0
    1.4417   -0.4167    0.0000 C   0  0  0  0  0  0  0  0  0  0  0  0
    0.7375   -0.8375    0.0000 C   0  0  0  0  0  0  0  0  0  0  0  0
    0.7375   -1.6625    0.0000 C   0  0  0  0  0  0  0  0  0  0  0  0
    4.2875   -2.0750    0.0000 O   0  0  0  0  0  0  0  0  0  0  0  0
    2.8667   -2.0750    0.0000 C   0  0  0  0  0  0  0  0  0  0  0  0
    5.0042   -1.6667    0.0000 C   0  0  0  0  0  0  0  0  0  0  0  0
    1.4417   -2.0667    0.0000 C   0  0  0  0  0  0  0  0  0  0  0  0
    5.0042   -0.8500    0.0000 C   0  0  0  0  0  0  0  0  0  0  0  0
    2.1542    0.8208    0.0000 O   0  0  0  0  0  0  0  0  0  0  0  0
    1.4417    0.4083    0.0000 O   0  0  0  0  0  0  0  0  0  0  0  0
    5.7167   -2.0875    0.0000 O   0  0  0  0  0  0  0  0  0  0  0  0
    3.5917    1.6333    0.0000 O   0  0  0  0  0  0  0  0  0  0  0  0
    0.0167   -0.4250    0.0000 O   0  0  0  0  0  0  0  0  0  0  0  0
    2.1542   -0.0125    0.0000 C   0  0  0  0  0  0  0  0  0  0  0  0
    3.5792   -0.0167    0.0000 C   0  0  0  0  0  0  0  0  0  0  0  0
    5.0167    0.8000    0.0000 C   0  0  0  0  0  0  0  0  0  0  0  0
    1.4500   -2.8917    0.0000 C   0  0  0  0  0  0  0  0  0  0  0  0
    4.3042    2.0458    0.0000 C   0  0  0  0  0  0  0  0  0  0  0  0
    0.0167    0.4000    0.0000 C   0  0  0  0  0  0  0  0  0  0  0  0
  2  3  1  0
  3  1  1  0
  4  3  1  0
  5  2  1  0
  6  4  1  0
  7  1  1  0
  8  6  2  0
  9 14  1  6
 10  1  1  0
 11 10  1  0
 12 11  2  0
  9 13  1  0
  7 14  1  1
 15 13  1  0
 16  7  1  0
  5 17  1  6
 18  4  2  0
 19 10  2  0
 20 15  2  0
 21  6  1  0
 22 11  1  0
  1 23  1  1
  2 24  1  1
 25  8  1  0
 26 16  1  0
 27 21  1  0
 28 22  1  0
 16 12  1  0
  2  9  1  0
  5  8  1  0
 15 17  1  0
M  END
>  <ID>  (2148) 


>  <MOLENAME>  (2148) 
QUASSIN

>  <therap>  (2148) 
insecticide, antiamoebic

>  <ref>  (2148) 
JACS 60:1146 (1938); 72:375 (1950); Tetrahedron 15:100 (1961); 18:1433 (1962)

>  <cas#>  (2148) 
76-78-8

>  <source>  (2148) 
Quassia amara, Picrasma excelsa and Ailanthus glandulosa

>  <status>  (2148) 
experimental

>  <tradename>  (2148) 
nan

>  <SMILES>  (2148) 
COC1=CC(C)[C@@H]2C[C@H]3OC(=O)C[C@H]4C(C)=C(OC)C(=O)C([C@@]2(C)C1=O)[C@@]34C

>  <standardized_failed>  (2148) 
False

$$$$

     RDKit          2D

 13 13  0  0  0  0  0  0  0  0999 V2000
    5.1292   -3.3417    0.0000 C   0  0  0  0  0  0  0  0  0  0  0  0
    4.5500   -3.9292    0.0000 C   0  0  0  0  0  0  0  0  0  0  0  0
    5.9292   -3.5542    0.0000 C   0  0  0  0  0  0  0  0  0  0  0  0
    5.5667   -4.9292    0.0000 C   0  0  0  0  0  0  0  0  0  0  0  0
    5.0875   -2.5167    0.0000 C   0  0  0  0  0  0  0  0  0  0  0  0
    6.1417   -4.3500    0.0000 C   0  0  0  0  0  0  0  0  0  0  0  0
    4.7625   -4.7125    0.0000 C   0  0  0  0  0  0  0  0  0  0  0  0
    5.7792   -2.0667    0.0000 O   0  0  0  0  0  0  0  0  0  0  0  0
    4.2667   -3.2417    0.0000 O   0  0  0  0  0  0  0  0  0  0  0  0
    5.7875   -5.7292    0.0000 O   0  0  0  0  0  0  0  0  0  0  0  0
    4.3500   -2.1417    0.0000 O   0  0  0  0  0  0  0  0  0  0  0  0
    4.1667   -5.2792    0.0000 O   0  0  0  0  0  0  0  0  0  0  0  0
    6.9417   -4.5667    0.0000 O   0  0  0  0  0  0  0  0  0  0  0  0
  2  1  1  0
  3  1  1  0
  4  6  1  0
  1  5  1  0
  6  3  1  0
  7  2  1  0
  8  5  2  0
  1  9  1  6
  4 10  1  6
 11  5  1  0
  7 12  1  6
  6 13  1  1
  4  7  1  0
M  END
>  <ID>  (2149) 


>  <MOLENAME>  (2149) 
QUINIC ACID

>  <therap>  (2149) 
nan

>  <ref>  (2149) 
Ber 65: 1009 (1932)

>  <cas#>  (2149) 
77-95-2

>  <source>  (2149) 
Cinchona spp

>  <status>  (2149) 
undetermined activity

>  <tradename>  (2149) 
nan

>  <SMILES>  (2149) 
O=C(O)[C@]1(O)C[C@@H](O)[C@@H](O)[C@H](O)C1

>  <standardized_failed>  (2149) 
False

$$$$

     RDKit          2D

 43 47  0  0  0  0  0  0  0  0999 V2000
    4.1292   -2.8167    0.0000 C   0  0  0  0  0  0  0  0  0  0  0  0
    1.9875   -0.7417    0.0000 C   0  0  0  0  0  0  0  0  0  0  0  0
    1.2750   -0.3292    0.0000 C   0  0  0  0  0  0  0  0  0  0  0  0
    4.1292    2.9083    0.0000 C   0  0  0  0  0  0  0  0  0  0  0  0
    4.8417   -3.2292    0.0000 C   0  0  0  0  0  0  0  0  0  0  0  0
    4.1292   -1.9917    0.0000 C   0  0  0  0  0  0  0  0  0  0  0  0
    1.2750    0.5000    0.0000 C   0  0  0  0  0  0  0  0  0  0  0  0
    4.8417    3.3208    0.0000 C   0  0  0  0  0  0  0  0  0  0  0  0
    4.1375    2.0833    0.0000 C   0  0  0  0  0  0  0  0  0  0  0  0
    2.7042   -0.3292    0.0000 O   0  0  0  0  0  0  0  0  0  0  0  0
    4.8417   -1.5792    0.0000 O   0  0  0  0  0  0  0  0  0  0  0  0
    1.9875    0.9125    0.0000 C   0  0  0  0  0  0  0  0  0  0  0  0
    4.8500    1.6708    0.0000 O   0  0  0  0  0  0  0  0  0  0  0  0
    2.7042    0.5000    0.0000 C   0  0  0  0  0  0  0  0  0  0  0  0
    3.4167   -3.2292    0.0000 C   0  0  0  0  0  0  0  0  0  0  0  0
    5.5625    2.9083    0.0000 C   0  0  0  0  0  0  0  0  0  0  0  0
    5.5625   -1.9917    0.0000 C   0  0  0  0  0  0  0  0  0  0  0  0
    5.5625   -2.8167    0.0000 C   0  0  0  0  0  0  0  0  0  0  0  0
    5.5667    2.0833    0.0000 C   0  0  0  0  0  0  0  0  0  0  0  0
    2.7042   -1.9917    0.0000 C   0  0  0  0  0  0  0  0  0  0  0  0
    3.4167   -1.5792    0.0000 C   0  0  0  0  0  0  0  0  0  0  0  0
    1.9792   -1.5667    0.0000 O   0  0  0  0  0  0  0  0  0  0  0  0
    2.7042   -2.8167    0.0000 C   0  0  0  0  0  0  0  0  0  0  0  0
    6.2750   -1.5792    0.0000 C   0  0  0  0  0  0  0  0  0  0  0  0
    6.2750   -0.7500    0.0000 C   0  0  0  0  0  0  0  0  0  0  0  0
    6.9875   -0.3375    0.0000 C   0  0  0  0  0  0  0  0  0  0  0  0
    3.4250    1.6708    0.0000 O   0  0  0  0  0  0  0  0  0  0  0  0
    4.8417   -4.0542    0.0000 O   0  0  0  0  0  0  0  0  0  0  0  0
    3.4250    0.9208    0.0000 C   0  0  0  0  0  0  0  0  0  0  0  0
    7.7042   -0.7500    0.0000 C   0  0  0  0  0  0  0  0  0  0  0  0
    6.9917   -1.9917    0.0000 C   0  0  0  0  0  0  0  0  0  0  0  0
    7.7042   -1.5792    0.0000 C   0  0  0  0  0  0  0  0  0  0  0  0
    0.5542   -0.7500    0.0000 O   0  0  0  0  0  0  0  0  0  0  0  0
    3.4125    3.3333    0.0000 O   0  0  0  0  0  0  0  0  0  0  0  0
    0.5542    0.9208    0.0000 O   0  0  0  0  0  0  0  0  0  0  0  0
    4.8417    4.1417    0.0000 O   0  0  0  0  0  0  0  0  0  0  0  0
    1.9792    1.7375    0.0000 O   0  0  0  0  0  0  0  0  0  0  0  0
    3.4167   -4.0542    0.0000 O   0  0  0  0  0  0  0  0  0  0  0  0
    6.2792    3.3333    0.0000 O   0  0  0  0  0  0  0  0  0  0  0  0
    6.9792    0.2833    0.0000 O   0  0  0  0  0  0  0  0  0  0  0  0
    8.4292   -0.3292    0.0000 O   0  0  0  0  0  0  0  0  0  0  0  0
    6.2917    1.6708    0.0000 C   0  0  0  0  0  0  0  0  0  0  0  0
    9.1542   -0.7500    0.0000 C   0  0  0  0  0  0  0  0  0  0  0  0
  2 22  1  1
  3  2  1  0
  4  9  1  0
  5  1  1  0
  6  1  2  0
  7  3  1  0
  8  4  1  0
  9 27  1  6
 10  2  1  0
 11  6  1  0
 12 14  1  0
 13  9  1  0
 14 10  1  0
 15  1  1  0
 16 19  1  0
 17 11  1  0
 18  5  1  0
 19 13  1  0
 20 23  1  0
 21  6  1  0
 22 20  1  0
 23 15  2  0
 17 24  1  0
 25 24  2  0
 26 25  1  0
 27 29  1  0
 28  5  2  0
 14 29  1  1
 30 32  1  0
 31 24  1  0
 32 31  2  0
  3 33  1  6
  4 34  1  6
  7 35  1  1
  8 36  1  6
 12 37  1  6
 38 15  1  0
 16 39  1  1
 40 26  1  0
 41 30  1  0
 19 42  1  6
 43 41  1  0
 21 20  2  0
 17 18  1  6
 26 30  2  0
  7 12  1  0
  8 16  1  0
M  END
>  <ID>  (2150) 


>  <MOLENAME>  (2150) 
HESPERIDIN

>  <therap>  (2150) 
capillary protectant

>  <ref>  (2150) 
nan

>  <cas#>  (2150) 
520-26-3

>  <source>  (2150) 
Citrus spp.

>  <status>  (2150) 
experimental

>  <tradename>  (2150) 
nan

>  <SMILES>  (2150) 
COc1c(O)cc([C@@H]2CC(=O)c3c(cc(O[C@@H]4O[C@H](CO[C@H]5O[C@@H](C)[C@H](O)[C@@H](O)[C@H]5O)[C@@H](O)[C@H](O)[C@H]4O)cc3O)O2)cc1

>  <standardized_failed>  (2150) 
False

$$$$

     RDKit          2D

  9  9  0  0  0  0  0  0  0  0999 V2000
    3.1042   -2.9750    0.0000 C   0  0  0  0  0  0  0  0  0  0  0  0
    3.1042   -2.1500    0.0000 C   0  0  0  0  0  0  0  0  0  0  0  0
    2.3917   -3.3792    0.0000 C   0  0  0  0  0  0  0  0  0  0  0  0
    1.6792   -2.9750    0.0000 C   0  0  0  0  0  0  0  0  0  0  0  0
    2.3917   -1.7292    0.0000 O   0  0  0  0  0  0  0  0  0  0  0  0
    1.6792   -2.1500    0.0000 C   0  0  0  0  0  0  0  0  0  0  0  0
    2.3917   -4.2042    0.0000 O   0  0  0  0  0  0  0  0  0  0  0  0
    3.8167   -3.3875    0.0000 O   0  0  0  0  0  0  0  0  0  0  0  0
    3.8167   -1.7375    0.0000 C   0  0  0  0  0  0  0  0  0  0  0  0
  2  1  2  0
  3  1  1  0
  4  3  1  0
  5  2  1  0
  6  4  2  0
  7  3  2  0
  8  1  1  0
  9  2  1  0
  5  6  1  0
M  END
>  <ID>  (2151) 


>  <MOLENAME>  (2151) 
LARIXINIC ACID

>  <therap>  (2151) 
nan

>  <ref>  (2151) 
Ber 27: 3115 (1984); 34: 1804 (1901); 43: 2398 (1910)

>  <cas#>  (2151) 
118-71-8

>  <source>  (2151) 
Larix decidua

>  <status>  (2151) 
undetermined activity

>  <tradename>  (2151) 
nan

>  <SMILES>  (2151) 
Cc1c(O)c(=O)cco1

>  <standardized_failed>  (2151) 
False

$$$$

     RDKit          2D

 30 33  0  0  0  0  0  0  0  0999 V2000
    0.8292    0.6083    0.0000 C   0  0  0  0  0  0  0  0  0  0  0  0
   -1.3208   -0.6125    0.0000 C   0  0  0  0  0  0  0  0  0  0  0  0
   -1.3250   -1.4375    0.0000 C   0  0  0  0  0  0  0  0  0  0  0  0
    0.8167   -0.2167    0.0000 C   0  0  0  0  0  0  0  0  0  0  0  0
   -0.6083   -0.2000    0.0000 C   0  0  0  0  0  0  0  0  0  0  0  0
    0.1000   -0.6167    0.0000 C   0  0  0  0  0  0  0  0  0  0  0  0
    1.6125    0.8458    0.0000 C   0  0  0  0  0  0  0  0  0  0  0  0
   -2.0333   -1.8417    0.0000 C   0  0  0  0  0  0  0  0  0  0  0  0
    0.1167    1.0333    0.0000 C   0  0  0  0  0  0  0  0  0  0  0  0
   -0.6000    0.6250    0.0000 C   0  0  0  0  0  0  0  0  0  0  0  0
    1.5917   -0.4792    0.0000 C   0  0  0  0  0  0  0  0  0  0  0  0
    2.8417    1.5708    0.0000 C   0  0  0  0  0  0  0  0  0  0  0  0
    3.2625    0.8625    0.0000 C   0  0  0  0  0  0  0  0  0  0  0  0
   -2.0333   -0.1917    0.0000 C   0  0  0  0  0  0  0  0  0  0  0  0
    2.0875    0.1750    0.0000 C   0  0  0  0  0  0  0  0  0  0  0  0
    0.1042   -1.4417    0.0000 C   0  0  0  0  0  0  0  0  0  0  0  0
   -0.6125   -1.8500    0.0000 C   0  0  0  0  0  0  0  0  0  0  0  0
   -2.7458   -1.4375    0.0000 C   0  0  0  0  0  0  0  0  0  0  0  0
    2.0167    1.5625    0.0000 C   0  0  0  0  0  0  0  0  0  0  0  0
   -3.4583   -1.8500    0.0000 O   0  0  0  0  0  0  0  0  0  0  0  0
    4.0875    0.8708    0.0000 C   0  0  0  0  0  0  0  0  0  0  0  0
   -2.7458   -0.6125    0.0000 C   0  0  0  0  0  0  0  0  0  0  0  0
    0.8250    1.4333    0.0000 C   0  0  0  0  0  0  0  0  0  0  0  0
   -1.3250    0.2125    0.0000 C   0  0  0  0  0  0  0  0  0  0  0  0
    4.5042    0.1583    0.0000 C   0  0  0  0  0  0  0  0  0  0  0  0
    4.4917    1.5875    0.0000 C   0  0  0  0  0  0  0  0  0  0  0  0
    1.6000    2.2750    0.0000 C   0  0  0  0  0  0  0  0  0  0  0  0
    5.3292    0.1708    0.0000 C   0  0  0  0  0  0  0  0  0  0  0  0
    4.1000   -0.5542    0.0000 C   0  0  0  0  0  0  0  0  0  0  0  0
    5.3167    1.5958    0.0000 C   0  0  0  0  0  0  0  0  0  0  0  0
  2  5  1  0
  3  2  1  0
  4  1  1  0
  5 10  1  0
  6  4  1  0
  7  1  1  0
  8  3  2  0
  9  1  1  0
 10  9  1  0
 11  4  1  0
 12 19  1  0
 13 12  2  0
 14  2  1  0
 15  7  1  0
 16  6  1  0
 17 16  1  0
 18 22  1  0
 19  7  1  0
 20 18  2  0
 21 13  1  0
 22 14  1  0
  1 23  1  1
  2 24  1  1
 25 21  1  0
 21 26  1  1
 27 19  1  0
 28 25  1  0
 29 25  1  0
 30 26  1  0
 15 11  1  0
  5  6  1  0
 17  3  1  0
 18  8  1  0
M  END
>  <ID>  (2152) 


>  <MOLENAME>  (2152) 
STIGMASTA-4.22-DIEN-3-ONE

>  <therap>  (2152) 
nan

>  <ref>  (2152) 
J Chem Soc 1942:391; Phytochemistry 22:2087 (1983)

>  <cas#>  (2152) 
20817-72-5

>  <source>  (2152) 
plant constituent

>  <status>  (2152) 
undetermined activity

>  <tradename>  (2152) 
nan

>  <SMILES>  (2152) 
CC[C@H](/C=C/C(C)C1CCC2C3CCC4=CC(=O)CC[C@]4(C)C3CC[C@]12C)C(C)C

>  <standardized_failed>  (2152) 
False

$$$$

     RDKit          2D

  8  8  0  0  0  0  0  0  0  0999 V2000
    0.8667   -0.3417    0.0000 C   0  0  0  0  0  0  0  0  0  0  0  0
    1.1125    0.4333    0.0000 C   0  0  0  0  0  0  0  0  0  0  0  0
    0.4375    0.9250    0.0000 O   0  0  0  0  0  0  0  0  0  0  0  0
    0.0417   -0.3417    0.0000 C   0  0  0  0  0  0  0  0  0  0  0  0
   -0.2250    0.4375    0.0000 C   0  0  0  0  0  0  0  0  0  0  0  0
    1.3542   -1.0042    0.0000 O   0  0  0  0  0  0  0  0  0  0  0  0
    1.9000    0.6833    0.0000 O   0  0  0  0  0  0  0  0  0  0  0  0
   -0.4458   -1.0125    0.0000 O   0  0  0  0  0  0  0  0  0  0  0  0
  2  1  1  0
  3  2  1  0
  4  1  1  0
  5  4  1  0
  1  6  1  6
  2  7  1  1
  4  8  1  6
  5  3  1  0
M  END
>  <ID>  (2153) 


>  <MOLENAME>  (2153) 
ERYTHROSE

>  <therap>  (2153) 
nan

>  <ref>  (2153) 
Bull Chem Soc Jpn 45:2616 (1972)

>  <cas#>  (2153) 
583-50-6

>  <source>  (2153) 
semisynthetic

>  <status>  (2153) 
undetermined activity

>  <tradename>  (2153) 
nan

>  <SMILES>  (2153) 
O[C@@H]1CO[C@@H](O)[C@@H]1O

>  <standardized_failed>  (2153) 
False

$$$$

     RDKit          2D

 26 28  0  0  0  0  0  0  0  0999 V2000
    5.0250   -4.5625    0.0000 C   0  0  0  0  0  0  0  0  0  0  0  0
    5.0250   -3.7375    0.0000 C   0  0  0  0  0  0  0  0  0  0  0  0
    4.3042   -4.9792    0.0000 C   0  0  0  0  0  0  0  0  0  0  0  0
    5.7292   -3.3167    0.0000 O   0  0  0  0  0  0  0  0  0  0  0  0
    5.7417   -4.9750    0.0000 C   0  0  0  0  0  0  0  0  0  0  0  0
    4.3042   -3.3250    0.0000 C   0  0  0  0  0  0  0  0  0  0  0  0
    3.5917   -4.5667    0.0000 C   0  0  0  0  0  0  0  0  0  0  0  0
    3.5917   -3.7375    0.0000 C   0  0  0  0  0  0  0  0  0  0  0  0
    6.4500   -3.7292    0.0000 C   0  0  0  0  0  0  0  0  0  0  0  0
    6.4542   -4.5542    0.0000 C   0  0  0  0  0  0  0  0  0  0  0  0
    7.1542   -3.3125    0.0000 C   0  0  0  0  0  0  0  0  0  0  0  0
    5.7417   -5.8000    0.0000 O   0  0  0  0  0  0  0  0  0  0  0  0
    4.3125   -5.8042    0.0000 O   0  0  0  0  0  0  0  0  0  0  0  0
    7.1542   -2.4917    0.0000 C   0  0  0  0  0  0  0  0  0  0  0  0
    7.8750   -3.7250    0.0000 C   0  0  0  0  0  0  0  0  0  0  0  0
    4.3042   -2.5000    0.0000 O   0  0  0  0  0  0  0  0  0  0  0  0
    2.8792   -4.9792    0.0000 O   0  0  0  0  0  0  0  0  0  0  0  0
    2.8792   -3.3292    0.0000 O   0  0  0  0  0  0  0  0  0  0  0  0
    8.5792   -2.4792    0.0000 C   0  0  0  0  0  0  0  0  0  0  0  0
    8.5875   -3.3042    0.0000 C   0  0  0  0  0  0  0  0  0  0  0  0
    7.8625   -2.0750    0.0000 C   0  0  0  0  0  0  0  0  0  0  0  0
    9.2917   -2.0625    0.0000 O   0  0  0  0  0  0  0  0  0  0  0  0
    2.1667   -3.7417    0.0000 C   0  0  0  0  0  0  0  0  0  0  0  0
    2.1667   -4.5667    0.0000 C   0  0  0  0  0  0  0  0  0  0  0  0
    5.0167   -2.0875    0.0000 C   0  0  0  0  0  0  0  0  0  0  0  0
    9.2875   -1.2375    0.0000 C   0  0  0  0  0  0  0  0  0  0  0  0
  2  1  1  0
  3  1  2  0
  4  2  1  0
  5  1  1  0
  6  2  2  0
  7  3  1  0
  8  7  2  0
  9 10  2  0
 10  5  1  0
 11  9  1  0
 12  5  2  0
 13  3  1  0
 14 11  2  0
 15 11  1  0
 16  6  1  0
 17  7  1  0
 18  8  1  0
 19 21  2  0
 20 15  2  0
 21 14  1  0
 22 19  1  0
 23 18  1  0
 24 17  1  0
 25 16  1  0
 26 22  1  0
  9  4  1  0
  8  6  1  0
 19 20  1  0
M  END
>  <ID>  (2154) 


>  <MOLENAME>  (2154) 
GARDENIN B

>  <therap>  (2154) 
nan

>  <ref>  (2154) 
Tetrahedron 21:1441, 3741 (1965); Chem Pharm Bull 28:708, 717 (1980); Phytochemistry 23:2972 (1984)

>  <cas#>  (2154) 
2798-20-1

>  <source>  (2154) 
Gardenia lucida; Brickellia, Citrus and Mentha spp 

>  <status>  (2154) 
undetermined activity

>  <tradename>  (2154) 
nan

>  <SMILES>  (2154) 
COc1ccc(-c2cc(=O)c3c(O)c(OC)c(OC)c(OC)c3o2)cc1

>  <standardized_failed>  (2154) 
False

$$$$

     RDKit          2D

 32 30  0  0  0  0  0  0  0  0999 V2000
    8.2500   -5.3292    0.0000 N   0  0  0  0  0  0  0  0  0  0  0  0
    7.4792   -5.6042    0.0000 C   0  0  0  0  0  0  0  0  0  0  0  0
    2.9792   -4.6292    0.0000 P   0  0  0  0  0  0  0  0  0  0  0  0
    8.8792   -5.8542    0.0000 C   0  0  0  0  0  0  0  0  0  0  0  0
    9.6542   -5.5792    0.0000 N   0  0  0  0  0  0  0  0  0  0  0  0
    7.2167   -6.3917    0.0000 C   0  0  0  0  0  0  0  0  0  0  0  0
    6.8125   -5.1167    0.0000 O   0  0  0  0  0  0  0  0  0  0  0  0
    4.3750   -4.3167    0.0000 P   0  0  0  0  0  0  0  0  0  0  0  0
    3.5875   -4.0667    0.0000 O   0  0  0  0  0  0  0  0  0  0  0  0
    2.3792   -5.1917    0.0000 O   0  0  0  0  0  0  0  0  0  0  0  0
    2.5625   -5.9917    0.0000 P   0  0  0  0  0  0  0  0  0  0  0  0
    8.3917   -4.5167    0.0000 C   0  0  0  0  0  0  0  0  0  0  0  0
    6.1417   -5.6042    0.0000 C   0  0  0  0  0  0  0  0  0  0  0  0
    6.3917   -6.3917    0.0000 C   0  0  0  0  0  0  0  0  0  0  0  0
    9.1625   -4.2292    0.0000 C   0  0  0  0  0  0  0  0  0  0  0  0
    9.8000   -4.7667    0.0000 C   0  0  0  0  0  0  0  0  0  0  0  0
    2.4250   -4.0292    0.0000 O   0  0  0  0  0  0  0  0  0  0  0  0
    5.3500   -5.3542    0.0000 C   0  0  0  0  0  0  0  0  0  0  0  0
    3.5375   -5.2292    0.0000 O   0  0  0  0  0  0  0  0  0  0  0  0
    8.7375   -6.6667    0.0000 O   0  0  0  0  0  0  0  0  0  0  0  0
    5.1625   -4.5542    0.0000 O   0  0  0  0  0  0  0  0  0  0  0  0
    4.6167   -3.5167    0.0000 O   0  0  0  0  0  0  0  0  0  0  0  0
    2.7500   -6.7917    0.0000 O   0  0  0  0  0  0  0  0  0  0  0  0
    4.1375   -5.1042    0.0000 O   0  0  0  0  0  0  0  0  0  0  0  0
    1.7625   -6.1667    0.0000 O   0  0  0  0  0  0  0  0  0  0  0  0
   10.5792   -4.4917    0.0000 O   0  0  0  0  0  0  0  0  0  0  0  0
    7.7000   -7.0792    0.0000 O   0  0  0  0  0  0  0  0  0  0  0  0
    3.3667   -5.8042    0.0000 O   0  0  0  0  0  0  0  0  0  0  0  0
    5.9000   -7.0667    0.0000 O   0  0  0  0  0  0  0  0  0  0  0  0
    2.3917   -7.7750    0.0000 Na  0  0  0  0  0 15  0  0  0  0  0  0
    1.3042   -4.0542    0.0000 Na  0  0  0  0  0 15  0  0  0  0  0  0
    5.3625   -3.1792    0.0000 Na  0  0  0  0  0 15  0  0  0  0  0  0
  2  1  1  1
  3  9  1  0
  4  1  1  0
  5  4  1  0
  6  2  1  0
  7  2  1  0
  8 21  1  0
  9  8  1  0
 10  3  1  0
 11 10  1  0
 12  1  1  0
 13  7  1  0
 14  6  1  0
 15 12  2  0
 16 15  1  0
 17  3  1  0
 13 18  1  1
 19  3  2  0
 20  4  2  0
 21 18  1  0
 22  8  1  0
 23 11  1  0
 24  8  2  0
 25 11  2  0
 26 16  2  0
  6 27  1  6
 28 11  1  0
 14 29  1  6
  5 16  1  0
 14 13  1  0
M  CHG  6  17  -1  22  -1  23  -1  30   1  31   1  32   1
M  END
>  <ID>  (2155) 


>  <MOLENAME>  (2155) 
URIDINE TRIPHOSPHATE TRISODIUM

>  <therap>  (2155) 
psychostimulant

>  <ref>  (2155) 
JACS 75:5449 (1953); 105:115 (1983)

>  <cas#>  (2155) 
19817-92-6

>  <source>  (2155) 
yeast

>  <status>  (2155) 
experimental

>  <tradename>  (2155) 
nan

>  <SMILES>  (2155) 
O=c1ccn([C@@H]2O[C@H](COP(=O)(O)OP(=O)(O)OP(=O)(O)O)[C@@H](O)[C@H]2O)c(=O)[nH]1

>  <standardized_failed>  (2155) 
False

$$$$

     RDKit          2D

 23 26  0  0  0  0  0  0  0  0999 V2000
    4.6000   -1.6250    0.0000 C   0  0  0  0  0  0  0  0  0  0  0  0
    4.6000   -2.4500    0.0000 C   0  0  0  0  0  0  0  0  0  0  0  0
    3.8875   -2.8667    0.0000 C   0  0  0  0  0  0  0  0  0  0  0  0
    3.1625   -2.4500    0.0000 C   0  0  0  0  0  0  0  0  0  0  0  0
    2.4417   -2.8667    0.0000 C   0  0  0  0  0  0  0  0  0  0  0  0
    5.3917   -1.3667    0.0000 C   0  0  0  0  0  0  0  0  0  0  0  0
    2.4417   -3.7000    0.0000 C   0  0  0  0  0  0  0  0  0  0  0  0
    3.8792   -1.2125    0.0000 C   0  0  0  0  0  0  0  0  0  0  0  0
    3.1625   -1.6250    0.0000 C   0  0  0  0  0  0  0  0  0  0  0  0
    5.3917   -2.7042    0.0000 C   0  0  0  0  0  0  0  0  0  0  0  0
    3.8875   -3.7000    0.0000 C   0  0  0  0  0  0  0  0  0  0  0  0
    5.5750   -0.5625    0.0000 O   0  0  0  0  0  0  0  0  0  0  0  0
    1.7375   -2.4500    0.0000 C   0  0  0  0  0  0  0  0  0  0  0  0
    4.9667   -0.0042    0.0000 C   0  0  0  0  0  0  0  0  0  0  0  0
    3.1625   -4.1125    0.0000 C   0  0  0  0  0  0  0  0  0  0  0  0
    5.8750   -2.0250    0.0000 C   0  0  0  0  0  0  0  0  0  0  0  0
    1.7375   -4.1125    0.0000 C   0  0  0  0  0  0  0  0  0  0  0  0
    5.1417    0.8000    0.0000 O   0  0  0  0  0  0  0  0  0  0  0  0
    1.0125   -3.7000    0.0000 C   0  0  0  0  0  0  0  0  0  0  0  0
    1.0125   -2.8667    0.0000 C   0  0  0  0  0  0  0  0  0  0  0  0
    4.7875   -0.8125    0.0000 C   0  0  0  0  0  0  0  0  0  0  0  0
    0.2917   -4.1125    0.0000 O   0  0  0  0  0  0  0  0  0  0  0  0
    4.1792   -0.2542    0.0000 C   0  0  0  0  0  0  0  0  0  0  0  0
  2  1  1  0
  3  2  1  0
  4  9  1  0
  5  4  1  0
  6  1  1  0
  7  5  2  0
  8  1  1  0
  9  8  1  0
 10  2  1  0
 11  3  1  0
 12  6  1  0
 13  5  1  0
 14 12  1  0
 15 11  1  0
 16  6  1  0
 17  7  1  0
 18 14  2  0
 19 20  1  0
 20 13  2  0
 21  1  1  0
 22 19  1  0
 23 14  1  0
 10 16  1  0
  4  3  1  0
  7 15  1  0
 17 19  2  0
M  END
>  <ID>  (2156) 


>  <MOLENAME>  (2156) 
ESTRADIOL ACETATE

>  <therap>  (2156) 
estrogen

>  <ref>  (2156) 
nan

>  <cas#>  (2156) 
4245-41-4

>  <source>  (2156) 
semisynthetic

>  <status>  (2156) 
experimental

>  <tradename>  (2156) 
nan

>  <SMILES>  (2156) 
CC(=O)OC1CCC2C3CCc4c(ccc(O)c4)C3CCC12C

>  <standardized_failed>  (2156) 
False

$$$$

     RDKit          2D

 18 21  0  0  0  0  0  0  0  0999 V2000
    0.4750    0.3833    0.0000 C   0  0  0  0  0  0  0  0  0  0  0  0
    1.1917   -0.0250    0.0000 C   0  0  0  0  0  0  0  0  0  0  0  0
    0.4792   -1.2667    0.0000 C   0  0  0  0  0  0  0  0  0  0  0  0
    1.1917   -0.8542    0.0000 C   0  0  0  0  0  0  0  0  0  0  0  0
   -0.2333   -0.8542    0.0000 C   0  0  0  0  0  0  0  0  0  0  0  0
   -0.2333   -0.0292    0.0000 C   0  0  0  0  0  0  0  0  0  0  0  0
    0.4667    1.2083    0.0000 O   0  0  0  0  0  0  0  0  0  0  0  0
    1.9042   -1.2625    0.0000 C   0  0  0  0  0  0  0  0  0  0  0  0
    1.9042    0.3958    0.0000 C   0  0  0  0  0  0  0  0  0  0  0  0
    0.4792   -2.0875    0.0000 C   0  0  0  0  0  0  0  0  0  0  0  0
   -0.9500   -1.2750    0.0000 C   0  0  0  0  0  0  0  0  0  0  0  0
   -0.9500    0.3833    0.0000 C   0  0  0  0  0  0  0  0  0  0  0  0
    2.6167   -0.0125    0.0000 C   0  0  0  0  0  0  0  0  0  0  0  0
    1.1917   -2.5000    0.0000 C   0  0  0  0  0  0  0  0  0  0  0  0
    2.6292   -0.8417    0.0000 C   0  0  0  0  0  0  0  0  0  0  0  0
    1.9042   -2.0792    0.0000 C   0  0  0  0  0  0  0  0  0  0  0  0
   -1.6625   -0.0292    0.0000 C   0  0  0  0  0  0  0  0  0  0  0  0
   -1.6625   -0.8625    0.0000 C   0  0  0  0  0  0  0  0  0  0  0  0
  2  1  1  0
  3  5  1  0
  4  2  2  0
  5  6  2  0
  6  1  1  0
  7  1  2  0
  8  4  1  0
  9  2  1  0
 10  3  2  0
 11  5  1  0
 12  6  1  0
 13  9  2  0
 14 10  1  0
 15 13  1  0
 16  8  1  0
 17 12  2  0
 18 17  1  0
  3  4  1  0
 18 11  2  0
 15  8  2  0
 16 14  2  0
M  END
>  <ID>  (2157) 


>  <MOLENAME>  (2157) 
BENZANTHRONE

>  <therap>  (2157) 
hepatotoxic, P450 suppressant

>  <ref>  (2157) 
J Biochem Toxicol. 6: 37(1991); Arch Toxicol 75: 221 (2001)

>  <cas#>  (2157) 
82-05-3

>  <source>  (2157) 
synthetic

>  <status>  (2157) 
experimental

>  <tradename>  (2157) 
nan

>  <SMILES>  (2157) 
O=C1c2c(cccc2)-c2cccc3cccc1c23

>  <standardized_failed>  (2157) 
False

$$$$

     RDKit          2D

 21 23  0  0  0  0  0  0  0  0999 V2000
    6.8542   -2.5375    0.0000 C   0  0  0  0  0  0  0  0  0  0  0  0
    6.1417   -2.9542    0.0000 C   0  0  0  0  0  0  0  0  0  0  0  0
    5.4292   -2.5417    0.0000 C   0  0  0  0  0  0  0  0  0  0  0  0
    6.8542   -1.7042    0.0000 C   0  0  0  0  0  0  0  0  0  0  0  0
    6.1375   -1.3000    0.0000 O   0  0  0  0  0  0  0  0  0  0  0  0
    5.4292   -1.7167    0.0000 C   0  0  0  0  0  0  0  0  0  0  0  0
    4.7125   -2.9542    0.0000 C   0  0  0  0  0  0  0  0  0  0  0  0
    4.7125   -1.3042    0.0000 C   0  0  0  0  0  0  0  0  0  0  0  0
    4.0000   -2.5417    0.0000 C   0  0  0  0  0  0  0  0  0  0  0  0
    6.1417   -3.7792    0.0000 O   0  0  0  0  0  0  0  0  0  0  0  0
    7.5625   -1.2917    0.0000 C   0  0  0  0  0  0  0  0  0  0  0  0
    4.0000   -1.7167    0.0000 C   0  0  0  0  0  0  0  0  0  0  0  0
    7.5750   -2.9417    0.0000 O   0  0  0  0  0  0  0  0  0  0  0  0
    4.7167   -3.7792    0.0000 O   0  0  0  0  0  0  0  0  0  0  0  0
    3.2875   -1.3042    0.0000 O   0  0  0  0  0  0  0  0  0  0  0  0
    8.2792   -1.7042    0.0000 C   0  0  0  0  0  0  0  0  0  0  0  0
    7.5542   -0.4667    0.0000 C   0  0  0  0  0  0  0  0  0  0  0  0
    3.2833   -0.4792    0.0000 C   0  0  0  0  0  0  0  0  0  0  0  0
    8.9917   -1.2875    0.0000 C   0  0  0  0  0  0  0  0  0  0  0  0
    8.2667   -0.0542    0.0000 C   0  0  0  0  0  0  0  0  0  0  0  0
    8.9875   -0.4625    0.0000 C   0  0  0  0  0  0  0  0  0  0  0  0
  2  1  1  0
  3  2  1  0
  4  1  2  0
  5  4  1  0
  6  3  2  0
  7  3  1  0
  8  6  1  0
  9  7  2  0
 10  2  2  0
 11  4  1  0
 12  8  2  0
 13  1  1  0
 14  7  1  0
 15 12  1  0
 16 11  2  0
 17 11  1  0
 18 15  1  0
 19 16  1  0
 20 17  2  0
 21 20  1  0
  5  6  1  0
 12  9  1  0
 19 21  2  0
M  END
>  <ID>  (2158) 


>  <MOLENAME>  (2158) 
IZALPININ

>  <therap>  (2158) 
nan

>  <ref>  (2158) 
Phytochemistry 15:572 (1976)

>  <cas#>  (2158) 
480-14-4

>  <source>  (2158) 
Alpinia & Populus spp

>  <status>  (2158) 
undetermined activity

>  <tradename>  (2158) 
nan

>  <SMILES>  (2158) 
COc1cc2c(c(O)c1)c(=O)c(O)c(-c1ccccc1)o2

>  <standardized_failed>  (2158) 
False

$$$$

     RDKit          2D

 16 17  0  0  0  0  0  0  0  0999 V2000
    0.4167   -2.1875    0.0000 N   0  0  0  0  0  0  0  0  0  0  0  0
    1.0750   -1.8125    0.0000 C   0  0  0  0  0  0  0  0  0  0  0  0
   -0.2250   -1.8125    0.0000 C   0  0  0  0  0  0  0  0  0  0  0  0
   -0.2250   -1.0542    0.0000 N   0  0  0  0  0  0  0  0  0  0  0  0
    1.0750   -1.0542    0.0000 C   0  0  0  0  0  0  0  0  0  0  0  0
    0.4167   -0.6792    0.0000 C   0  0  0  0  0  0  0  0  0  0  0  0
    1.7917   -2.0417    0.0000 N   0  0  0  0  0  0  0  0  0  0  0  0
    1.7917   -0.8250    0.0000 N   0  0  0  0  0  0  0  0  0  0  0  0
    2.2375   -1.4292    0.0000 C   0  0  0  0  0  0  0  0  0  0  0  0
    0.4167   -2.9375    0.0000 C   0  0  0  0  0  0  0  0  0  0  0  0
   -0.8750   -2.1875    0.0000 O   0  0  0  0  0  0  0  0  0  0  0  0
    0.4167    0.0708    0.0000 O   0  0  0  0  0  0  0  0  0  0  0  0
   -0.8833   -0.6792    0.0000 C   0  0  0  0  0  0  0  0  0  0  0  0
   -0.2333   -3.3042    0.0000 C   0  0  0  0  0  0  0  0  0  0  0  0
   -0.2333   -4.0542    0.0000 C   0  0  0  0  0  0  0  0  0  0  0  0
   -0.8833   -2.9292    0.0000 C   0  0  0  0  0  0  0  0  0  0  0  0
  2  1  1  0
  3  1  1  0
  4  3  1  0
  5  2  2  0
  6  4  1  0
  7  2  1  0
  8  5  1  0
  9  7  2  0
 10  1  1  0
 11  3  2  0
 12  6  2  0
 13  4  1  0
 14 10  1  0
 15 14  1  0
 16 14  1  0
  6  5  1  0
  8  9  1  0
M  END
>  <ID>  (2159) 


>  <MOLENAME>  (2159) 
ISOBUTYLMETHYLXANTHINE

>  <therap>  (2159) 
phosphodiesterase inhibitor

>  <ref>  (2159) 
Eur J Pharmacol 170: 35 (1989)

>  <cas#>  (2159) 
nan

>  <source>  (2159) 
synthetic

>  <status>  (2159) 
experimental

>  <tradename>  (2159) 
nan

>  <SMILES>  (2159) 
CC(C)Cn1c(=O)n(C)c(=O)c2c1nc[nH]2

>  <standardized_failed>  (2159) 
False

$$$$

     RDKit          2D

 13  9  0  0  0  0  0  0  0  0999 V2000
    1.9625   -1.5542    0.0000 N   0  0  0  0  0  0  0  0  0  0  0  0
   -2.3208   -0.9375    0.0000 Cl  0  0  0  0  0  0  0  0  0  0  0  0
    1.8917   -0.7792    0.0000 Cl  0  0  0  0  0  0  0  0  0  0  0  0
    5.6417   -0.8125    0.0000 Cl  0  0  0  0  0  0  0  0  0  0  0  0
    4.8125   -1.5542    0.0000 N   0  0  0  0  0  0  0  0  0  0  0  0
   -1.6000   -1.9667    0.0000 N   0  0  0  0  0  0  0  0  0  0  0  0
    3.3875   -1.5542    0.0000 C   0  0  0  0  0  0  0  0  0  0  0  0
    2.6750   -1.9667    0.0000 C   0  0  0  0  0  0  0  0  0  0  0  0
    4.1000   -1.9667    0.0000 C   0  0  0  0  0  0  0  0  0  0  0  0
    1.2500   -1.9667    0.0000 C   0  0  0  0  0  0  0  0  0  0  0  0
   -0.8875   -1.5542    0.0000 C   0  0  0  0  0  0  0  0  0  0  0  0
    0.5375   -1.5542    0.0000 C   0  0  0  0  0  0  0  0  0  0  0  0
   -0.1750   -1.9667    0.0000 C   0  0  0  0  0  0  0  0  0  0  0  0
  5  9  1  0
  6 11  1  0
  7  8  1  0
  8  1  1  0
  9  7  1  0
 10  1  1  0
 11 13  1  0
 12 10  1  0
 13 12  1  0
M  END
>  <ID>  (2160) 


>  <MOLENAME>  (2160) 
SPERMIDINE TRIHYDROCHLORIDE

>  <therap>  (2160) 
ornithine decarboxylase inhibitor

>  <ref>  (2160) 
nan

>  <cas#>  (2160) 
nan

>  <source>  (2160) 
animal tissue and Coprinus comatus

>  <status>  (2160) 
experimental

>  <tradename>  (2160) 
nan

>  <SMILES>  (2160) 
NCCCCNCCCN

>  <standardized_failed>  (2160) 
False

$$$$

     RDKit          2D

 33 37  0  0  0  0  0  0  0  0999 V2000
    7.2792   -1.7500    0.0000 C   0  0  0  0  0  0  0  0  0  0  0  0
    5.8417   -2.5875    0.0000 C   0  0  0  0  0  0  0  0  0  0  0  0
    5.8417   -1.7500    0.0000 C   0  0  0  0  0  0  0  0  0  0  0  0
    7.2875   -2.5875    0.0000 C   0  0  0  0  0  0  0  0  0  0  0  0
    6.5542   -3.0000    0.0000 C   0  0  0  0  0  0  0  0  0  0  0  0
    6.5625   -1.3292    0.0000 C   0  0  0  0  0  0  0  0  0  0  0  0
    6.5542   -3.8250    0.0000 C   0  0  0  0  0  0  0  0  0  0  0  0
    8.0750   -2.8375    0.0000 C   0  0  0  0  0  0  0  0  0  0  0  0
    5.1292   -2.9917    0.0000 C   0  0  0  0  0  0  0  0  0  0  0  0
    5.1292   -1.3375    0.0000 C   0  0  0  0  0  0  0  0  0  0  0  0
    6.5542   -5.4667    0.0000 C   0  0  0  0  0  0  0  0  0  0  0  0
    8.5625   -2.1625    0.0000 O   0  0  0  0  0  0  0  0  0  0  0  0
    8.0750   -1.4917    0.0000 C   0  0  0  0  0  0  0  0  0  0  0  0
    5.8375   -5.0500    0.0000 C   0  0  0  0  0  0  0  0  0  0  0  0
    7.2667   -5.0500    0.0000 C   0  0  0  0  0  0  0  0  0  0  0  0
    4.4167   -1.7542    0.0000 C   0  0  0  0  0  0  0  0  0  0  0  0
    4.4167   -2.5792    0.0000 C   0  0  0  0  0  0  0  0  0  0  0  0
    6.6042   -0.4792    0.0000 O   0  0  0  0  0  0  0  0  0  0  0  0
    7.2667   -4.2292    0.0000 C   0  0  0  0  0  0  0  0  0  0  0  0
    5.8417   -4.2292    0.0000 C   0  0  0  0  0  0  0  0  0  0  0  0
    7.3375   -0.1042    0.0000 C   0  0  0  0  0  0  0  0  0  0  0  0
    3.6292   -2.8375    0.0000 O   0  0  0  0  0  0  0  0  0  0  0  0
    3.6292   -1.5000    0.0000 O   0  0  0  0  0  0  0  0  0  0  0  0
    3.1500   -2.1667    0.0000 C   0  0  0  0  0  0  0  0  0  0  0  0
    8.3292   -3.6250    0.0000 O   0  0  0  0  0  0  0  0  0  0  0  0
    7.3750    0.7208    0.0000 O   0  0  0  0  0  0  0  0  0  0  0  0
    6.5542   -6.2917    0.0000 O   0  0  0  0  0  0  0  0  0  0  0  0
    5.1250   -5.4625    0.0000 O   0  0  0  0  0  0  0  0  0  0  0  0
    7.9875   -5.4625    0.0000 O   0  0  0  0  0  0  0  0  0  0  0  0
    8.0292   -0.5500    0.0000 C   0  0  0  0  0  0  0  0  0  0  0  0
    5.8375   -6.7042    0.0000 C   0  0  0  0  0  0  0  0  0  0  0  0
    4.4125   -5.0500    0.0000 C   0  0  0  0  0  0  0  0  0  0  0  0
    8.7000   -5.0500    0.0000 C   0  0  0  0  0  0  0  0  0  0  0  0
  2  3  2  0
  3  6  1  0
  4  1  1  0
  5  4  1  0
  1  6  1  0
  5  7  1  6
  4  8  1  1
  9  2  1  0
 10  3  1  0
 11 14  2  0
 12 13  1  0
  1 13  1  1
 14 20  1  0
 15 19  2  0
 16 10  2  0
 17 16  1  0
  6 18  1  6
 19  7  1  0
 20  7  2  0
 21 18  1  0
 22 17  1  0
 23 16  1  0
 24 23  1  0
 25  8  2  0
 26 21  2  0
 27 11  1  0
 28 14  1  0
 29 15  1  0
 30 21  1  0
 31 27  1  0
 32 28  1  0
 33 29  1  0
 12  8  1  0
  2  5  1  0
  9 17  2  0
 11 15  1  0
 22 24  1  0
M  END
>  <ID>  (2161) 


>  <MOLENAME>  (2161) 
PICROPODOPHYLLIN ACETATE

>  <therap>  (2161) 
nan

>  <ref>  (2161) 
nan

>  <cas#>  (2161) 
nan

>  <source>  (2161) 
derivative

>  <status>  (2161) 
undetermined activity

>  <tradename>  (2161) 
nan

>  <SMILES>  (2161) 
COc1c(OC)c(OC)cc([C@@H]2c3c(cc4OCOc4c3)[C@H](OC(C)=O)[C@H]3COC(=O)[C@@H]23)c1

>  <standardized_failed>  (2161) 
False

$$$$

     RDKit          2D

 48 56  0  0  0  0  0  0  0  0999 V2000
   10.7208   -1.3250    0.0000 C   0  0  0  0  0  0  0  0  0  0  0  0
    5.6708   -3.1292    0.0000 C   0  0  0  0  0  0  0  0  0  0  0  0
    9.9042   -1.1958    0.0000 C   0  0  0  0  0  0  0  0  0  0  0  0
    4.9583   -3.5417    0.0000 C   0  0  0  0  0  0  0  0  0  0  0  0
    9.5292   -1.9292    0.0000 C   0  0  0  0  0  0  0  0  0  0  0  0
   10.3042   -0.6042    0.0000 O   0  0  0  0  0  0  0  0  0  0  0  0
    7.1000   -3.1458    0.0000 C   0  0  0  0  0  0  0  0  0  0  0  0
    7.1083   -2.3208    0.0000 C   0  0  0  0  0  0  0  0  0  0  0  0
    4.9542   -2.7167    0.0000 C   0  0  0  0  0  0  0  0  0  0  0  0
    6.3792   -3.5500    0.0000 C   0  0  0  0  0  0  0  0  0  0  0  0
   10.1125   -2.5125    0.0000 O   0  0  0  0  0  0  0  0  0  0  0  0
   10.8500   -2.1375    0.0000 C   0  0  0  0  0  0  0  0  0  0  0  0
    4.9542   -4.3667    0.0000 C   0  0  0  0  0  0  0  0  0  0  0  0
    9.1792   -2.6750    0.0000 O   0  0  0  0  0  0  0  0  0  0  0  0
    2.1042   -6.0167    0.0000 C   0  0  0  0  0  0  0  0  0  0  0  0
    6.4000   -1.9000    0.0000 C   0  0  0  0  0  0  0  0  0  0  0  0
    7.8917   -2.0750    0.0000 C   0  0  0  0  0  0  0  0  0  0  0  0
    8.3667   -2.7500    0.0000 C   0  0  0  0  0  0  0  0  0  0  0  0
    2.1000   -5.1917    0.0000 C   0  0  0  0  0  0  0  0  0  0  0  0
    5.6750   -2.3042    0.0000 C   0  0  0  0  0  0  0  0  0  0  0  0
    4.2458   -4.7750    0.0000 C   0  0  0  0  0  0  0  0  0  0  0  0
    7.8792   -3.4042    0.0000 C   0  0  0  0  0  0  0  0  0  0  0  0
    1.3917   -6.4333    0.0000 C   0  0  0  0  0  0  0  0  0  0  0  0
    8.2333   -1.3292    0.0000 C   0  0  0  0  0  0  0  0  0  0  0  0
    9.0542   -1.2583    0.0000 C   0  0  0  0  0  0  0  0  0  0  0  0
    3.5375   -4.3667    0.0000 C   0  0  0  0  0  0  0  0  0  0  0  0
    1.3875   -4.7833    0.0000 O   0  0  0  0  0  0  0  0  0  0  0  0
    2.8208   -4.7792    0.0000 O   0  0  0  0  0  0  0  0  0  0  0  0
    4.2458   -3.1250    0.0000 C   0  0  0  0  0  0  0  0  0  0  0  0
    6.3833   -4.3708    0.0000 C   0  0  0  0  0  0  0  0  0  0  0  0
    5.6667   -4.7792    0.0000 C   0  0  0  0  0  0  0  0  0  0  0  0
    6.4083   -1.0750    0.0000 O   0  0  0  0  0  0  0  0  0  0  0  0
    0.6750   -6.0208    0.0000 C   0  0  0  0  0  0  0  0  0  0  0  0
    5.6917   -0.6625    0.0000 C   0  0  0  0  0  0  0  0  0  0  0  0
    0.6708   -5.1958    0.0000 C   0  0  0  0  0  0  0  0  0  0  0  0
    3.5375   -3.5417    0.0000 C   0  0  0  0  0  0  0  0  0  0  0  0
   11.3042   -0.7417    0.0000 C   0  0  0  0  0  0  0  0  0  0  0  0
    5.6917    0.1625    0.0000 O   0  0  0  0  0  0  0  0  0  0  0  0
    2.8208   -6.4292    0.0000 O   0  0  0  0  0  0  0  0  0  0  0  0
   11.5833   -2.5125    0.0000 O   0  0  0  0  0  0  0  0  0  0  0  0
    7.0917   -3.9667    0.0000 C   0  0  0  0  0  0  0  0  0  0  0  0
    7.1042   -1.4917    0.0000 C   0  0  0  0  0  0  0  0  0  0  0  0
    1.3958   -7.2583    0.0000 O   0  0  0  0  0  0  0  0  0  0  0  0
   -0.0333   -6.4375    0.0000 O   0  0  0  0  0  0  0  0  0  0  0  0
    3.8292   -5.4875    0.0000 C   0  0  0  0  0  0  0  0  0  0  0  0
    4.6542   -5.4875    0.0000 C   0  0  0  0  0  0  0  0  0  0  0  0
    7.7542   -0.6583    0.0000 C   0  0  0  0  0  0  0  0  0  0  0  0
    4.9750   -1.0708    0.0000 C   0  0  0  0  0  0  0  0  0  0  0  0
  2 10  1  0
  3  1  1  0
  4  2  1  0
  5  3  1  0
  1  6  1  0
  7 22  1  0
  8 17  1  0
  2  9  1  1
 10  7  1  0
 11 12  1  0
 12  1  1  0
 13  4  1  0
 14  5  1  0
 15 19  1  0
 16  8  1  0
 17 24  1  1
 18 14  1  0
 19 28  1  1
 20 16  1  0
 21 13  1  0
 18 22  1  1
 23 15  1  0
 24 25  1  0
 25  5  1  0
 26 21  1  0
 27 19  1  0
 26 28  1  1
  4 29  1  6
 30 10  1  0
 31 30  1  0
 16 32  1  1
 33 35  1  0
 34 32  1  0
 35 27  1  0
 36 29  1  0
  1 37  1  6
 38 34  2  0
 15 39  1  6
 12 40  1  1
  7 41  1  6
  8 42  1  1
 23 43  1  1
 33 44  1  6
 45 21  1  0
 46 21  1  0
 24 47  1  6
 48 34  1  0
  3  6  1  1
 11  5  1  0
 18 17  1  0
  7  8  1  0
 20  2  1  0
  4  9  1  0
 31 13  1  0
 26 36  1  0
 23 33  1  0
M  END
>  <ID>  (2162) 


>  <MOLENAME>  (2162) 
ACTEIN

>  <therap>  (2162) 
antihypertensive

>  <ref>  (2162) 
Gazz Chim Ital 99:915 (1969); 101: 797 (1971); Chem Abs 123:193603p (1995)

>  <cas#>  (2162) 
18642-44-9

>  <source>  (2162) 
Actea racemosa, Cimicifuga spp

>  <status>  (2162) 
experimental

>  <tradename>  (2162) 
nan

>  <SMILES>  (2162) 
CC(=O)O[C@@H]1C[C@@]23C[C@@]24CC[C@H](O[C@@H]2OC[C@@H](O)[C@H](O)[C@H]2O)C(C)(C)C4CCC3[C@]2(C)C[C@@H]3OC4(C[C@@H](C)[C@@H]3[C@@]12C)O[C@H](O)[C@]1(C)O[C@H]41

>  <standardized_failed>  (2162) 
False

$$$$

     RDKit          2D

 22 24  0  0  0  0  0  0  0  0999 V2000
    6.9417   -3.8417    0.0000 C   0  0  0  0  0  0  0  0  0  0  0  0
    6.5667   -3.2000    0.0000 C   0  0  0  0  0  0  0  0  0  0  0  0
    7.6917   -3.8417    0.0000 C   0  0  0  0  0  0  0  0  0  0  0  0
    6.5667   -4.4917    0.0000 C   0  0  0  0  0  0  0  0  0  0  0  0
    6.9417   -5.1417    0.0000 C   0  0  0  0  0  0  0  0  0  0  0  0
    8.0667   -4.4917    0.0000 C   0  0  0  0  0  0  0  0  0  0  0  0
    6.9417   -2.5500    0.0000 C   0  0  0  0  0  0  0  0  0  0  0  0
    5.8167   -3.2000    0.0000 C   0  0  0  0  0  0  0  0  0  0  0  0
    7.6917   -5.1417    0.0000 C   0  0  0  0  0  0  0  0  0  0  0  0
    8.0667   -5.8042    0.0000 O   0  0  0  0  0  0  0  0  0  0  0  0
    7.6917   -2.5500    0.0000 C   0  0  0  0  0  0  0  0  0  0  0  0
    5.4417   -3.8500    0.0000 C   0  0  0  0  0  0  0  0  0  0  0  0
    5.4417   -2.5542    0.0000 C   0  0  0  0  0  0  0  0  0  0  0  0
    6.5667   -1.9042    0.0000 C   0  0  0  0  0  0  0  0  0  0  0  0
    4.3167   -3.2000    0.0000 C   0  0  0  0  0  0  0  0  0  0  0  0
    7.6917   -1.2542    0.0000 C   0  0  0  0  0  0  0  0  0  0  0  0
    4.6917   -3.8500    0.0000 C   0  0  0  0  0  0  0  0  0  0  0  0
    8.0667   -1.9042    0.0000 C   0  0  0  0  0  0  0  0  0  0  0  0
    6.9417   -1.2542    0.0000 C   0  0  0  0  0  0  0  0  0  0  0  0
    4.6917   -2.5542    0.0000 C   0  0  0  0  0  0  0  0  0  0  0  0
    3.5667   -3.2000    0.0000 O   0  0  0  0  0  0  0  0  0  0  0  0
    8.0625   -0.6042    0.0000 O   0  0  0  0  0  0  0  0  0  0  0  0
  2  1  2  0
  3  1  1  0
  4  1  1  0
  5  4  2  0
  6  3  2  0
  7  2  1  0
  8  2  1  0
  9  5  1  0
 10  9  2  0
 11  7  2  0
 12  8  2  0
 13  8  1  0
 14  7  1  0
 15 20  1  0
 16 19  1  0
 17 12  1  0
 18 11  1  0
 19 14  2  0
 20 13  2  0
 21 15  1  0
 22 16  1  0
  9  6  1  0
 15 17  2  0
 18 16  2  0
M  END
>  <ID>  (2163) 


>  <MOLENAME>  (2163) 
ROSOLIC ACID

>  <therap>  (2163) 
diagnostic aid

>  <ref>  (2163) 
nan

>  <cas#>  (2163) 
nan

>  <source>  (2163) 
synthetic

>  <status>  (2163) 
experimental

>  <tradename>  (2163) 
nan

>  <SMILES>  (2163) 
O=C1C=CC(=C(c2ccc(O)cc2)c2ccc(O)cc2)C=C1

>  <standardized_failed>  (2163) 
False

$$$$

     RDKit          2D

 21 23  0  0  0  0  0  0  0  0999 V2000
    3.2417   -0.9667    0.0000 C   0  0  0  0  0  0  0  0  0  0  0  0
    3.2292   -0.1375    0.0000 C   0  0  0  0  0  0  0  0  0  0  0  0
    2.5292   -1.3875    0.0000 C   0  0  0  0  0  0  0  0  0  0  0  0
    2.5167    0.2708    0.0000 O   0  0  0  0  0  0  0  0  0  0  0  0
    1.8167   -0.9750    0.0000 C   0  0  0  0  0  0  0  0  0  0  0  0
    1.8167   -0.1500    0.0000 C   0  0  0  0  0  0  0  0  0  0  0  0
    1.0917   -1.3875    0.0000 C   0  0  0  0  0  0  0  0  0  0  0  0
    3.9417    0.2750    0.0000 C   0  0  0  0  0  0  0  0  0  0  0  0
    2.5292   -2.2125    0.0000 O   0  0  0  0  0  0  0  0  0  0  0  0
    1.0917    0.2625    0.0000 C   0  0  0  0  0  0  0  0  0  0  0  0
    3.9542   -1.3792    0.0000 O   0  0  0  0  0  0  0  0  0  0  0  0
    0.3792   -0.9750    0.0000 C   0  0  0  0  0  0  0  0  0  0  0  0
    0.3792   -0.1500    0.0000 C   0  0  0  0  0  0  0  0  0  0  0  0
   -0.3333   -1.3792    0.0000 O   0  0  0  0  0  0  0  0  0  0  0  0
    4.6667   -0.1375    0.0000 C   0  0  0  0  0  0  0  0  0  0  0  0
    3.9417    1.1000    0.0000 C   0  0  0  0  0  0  0  0  0  0  0  0
    3.9542   -2.2042    0.0000 C   0  0  0  0  0  0  0  0  0  0  0  0
   -1.0458   -0.9667    0.0000 C   0  0  0  0  0  0  0  0  0  0  0  0
    5.3792    0.2833    0.0000 C   0  0  0  0  0  0  0  0  0  0  0  0
    4.6542    1.5125    0.0000 C   0  0  0  0  0  0  0  0  0  0  0  0
    5.3667    1.1083    0.0000 C   0  0  0  0  0  0  0  0  0  0  0  0
  2  1  2  0
  3  1  1  0
  4  2  1  0
  5  3  1  0
  6  5  2  0
  7  5  1  0
  8  2  1  0
  9  3  2  0
 10  6  1  0
 11  1  1  0
 12  7  2  0
 13 12  1  0
 14 12  1  0
 15  8  2  0
 16  8  1  0
 17 11  1  0
 18 14  1  0
 19 15  1  0
 20 16  2  0
 21 20  1  0
  6  4  1  0
 10 13  2  0
 21 19  2  0
M  END
>  <ID>  (2164) 


>  <MOLENAME>  (2164) 
3.6-DIMETHOXYFLAVONE

>  <therap>  (2164) 
nan

>  <ref>  (2164) 
nan

>  <cas#>  (2164) 
nan

>  <source>  (2164) 
semisynthetic

>  <status>  (2164) 
undetermined activity

>  <tradename>  (2164) 
nan

>  <SMILES>  (2164) 
COc1cc2c(cc1)oc(-c1ccccc1)c(OC)c2=O

>  <standardized_failed>  (2164) 
False

$$$$

     RDKit          2D

 41 45  0  0  0  0  0  0  0  0999 V2000
    3.3792   -3.2417    0.0000 C   0  0  0  0  0  0  0  0  0  0  0  0
    3.3750   -4.6792    0.0000 C   0  0  0  0  0  0  0  0  0  0  0  0
    3.7917   -2.5292    0.0000 C   0  0  0  0  0  0  0  0  0  0  0  0
    6.5750   -3.6542    0.0000 C   0  0  0  0  0  0  0  0  0  0  0  0
    2.5500   -4.6792    0.0000 C   0  0  0  0  0  0  0  0  0  0  0  0
    2.5542   -3.2417    0.0000 C   0  0  0  0  0  0  0  0  0  0  0  0
    7.2250   -4.0292    0.0000 C   0  0  0  0  0  0  0  0  0  0  0  0
    6.5750   -2.9042    0.0000 C   0  0  0  0  0  0  0  0  0  0  0  0
    2.1292   -5.3917    0.0000 C   0  0  0  0  0  0  0  0  0  0  0  0
    3.7917   -3.9542    0.0000 O   0  0  0  0  0  0  0  0  0  0  0  0
    3.3750   -1.8167    0.0000 O   0  0  0  0  0  0  0  0  0  0  0  0
    3.7792   -5.3917    0.0000 O   0  0  0  0  0  0  0  0  0  0  0  0
    7.2250   -2.5167    0.0000 O   0  0  0  0  0  0  0  0  0  0  0  0
    2.1292   -2.5292    0.0000 C   0  0  0  0  0  0  0  0  0  0  0  0
    5.9167   -4.0292    0.0000 C   0  0  0  0  0  0  0  0  0  0  0  0
    2.5500   -6.1125    0.0000 C   0  0  0  0  0  0  0  0  0  0  0  0
    2.5500   -1.8167    0.0000 C   0  0  0  0  0  0  0  0  0  0  0  0
    7.8792   -3.6542    0.0000 C   0  0  0  0  0  0  0  0  0  0  0  0
    7.8792   -2.9042    0.0000 C   0  0  0  0  0  0  0  0  0  0  0  0
    3.3667   -6.1125    0.0000 C   0  0  0  0  0  0  0  0  0  0  0  0
    5.2750   -2.9042    0.0000 C   0  0  0  0  0  0  0  0  0  0  0  0
    5.9167   -2.5167    0.0000 C   0  0  0  0  0  0  0  0  0  0  0  0
    4.6167   -2.5292    0.0000 O   0  0  0  0  0  0  0  0  0  0  0  0
    5.2750   -3.6542    0.0000 C   0  0  0  0  0  0  0  0  0  0  0  0
    8.5292   -2.5292    0.0000 C   0  0  0  0  0  0  0  0  0  0  0  0
    7.2250   -4.7792    0.0000 O   0  0  0  0  0  0  0  0  0  0  0  0
    1.8917   -4.3417    0.0000 O   0  0  0  0  0  0  0  0  0  0  0  0
    1.8917   -3.6542    0.0000 O   0  0  0  0  0  0  0  0  0  0  0  0
    1.3042   -5.4000    0.0000 O   0  0  0  0  0  0  0  0  0  0  0  0
    8.5292   -1.7792    0.0000 C   0  0  0  0  0  0  0  0  0  0  0  0
    9.1792   -2.9042    0.0000 C   0  0  0  0  0  0  0  0  0  0  0  0
    1.3042   -2.5292    0.0000 O   0  0  0  0  0  0  0  0  0  0  0  0
    5.9167   -4.7792    0.0000 O   0  0  0  0  0  0  0  0  0  0  0  0
    2.1292   -6.8292    0.0000 O   0  0  0  0  0  0  0  0  0  0  0  0
    9.8250   -1.7792    0.0000 C   0  0  0  0  0  0  0  0  0  0  0  0
    9.1792   -1.4042    0.0000 C   0  0  0  0  0  0  0  0  0  0  0  0
    9.8250   -2.5292    0.0000 C   0  0  0  0  0  0  0  0  0  0  0  0
    2.1292   -1.1042    0.0000 C   0  0  0  0  0  0  0  0  0  0  0  0
   10.4750   -1.4042    0.0000 O   0  0  0  0  0  0  0  0  0  0  0  0
    2.5500   -0.3917    0.0000 O   0  0  0  0  0  0  0  0  0  0  0  0
    3.7792   -6.8292    0.0000 C   0  0  0  0  0  0  0  0  0  0  0  0
  2 10  1  6
  3  1  1  0
  4 15  2  0
  5  2  1  0
  6  1  1  0
  7  4  1  0
  8 22  2  0
  9  5  1  0
  1 10  1  6
 11  3  1  0
 12  2  1  0
 13  8  1  0
 14  6  1  0
 15 24  1  0
 16 20  1  0
 17 14  1  0
 18  7  1  0
 19 13  1  0
 20 12  1  0
 21 23  1  0
 22 21  1  0
  3 23  1  6
 24 21  2  0
 19 25  1  0
 26  7  2  0
  5 27  1  1
  6 28  1  1
  9 29  1  1
 30 25  2  0
 31 25  1  0
 14 32  1  6
 33 15  1  0
 16 34  1  6
 35 37  1  0
 36 30  1  0
 37 31  2  0
 17 38  1  1
 39 35  1  0
 40 38  1  0
 20 41  1  1
 17 11  1  0
  9 16  1  0
  4  8  1  0
 19 18  1  6
 35 36  2  0
M  END
>  <ID>  (2165) 


>  <MOLENAME>  (2165) 
NARINGIN

>  <therap>  (2165) 
antihaemorrhagic, antiinflammatory

>  <ref>  (2165) 
JACS 61: 175 (1939); Tetrahedron 19: 773 (1963)

>  <cas#>  (2165) 
10236-47-2

>  <source>  (2165) 
Citrus spp

>  <status>  (2165) 
experimental

>  <tradename>  (2165) 
nan

>  <SMILES>  (2165) 
C[C@@H]1O[C@@H](O[C@@H]2[C@@H](O)[C@H](O)[C@@H](CO)O[C@@H]2Oc2cc(O)c3C(=O)C[C@@H](c4ccc(O)cc4)Oc3c2)[C@H](O)[C@H](O)[C@H]1O

>  <standardized_failed>  (2165) 
False

$$$$

     RDKit          2D

 16 16  0  0  0  0  0  0  0  0999 V2000
    2.8375   -1.6917    0.0000 C   0  0  0  0  0  0  0  0  0  0  0  0
    1.5042   -1.6917    0.0000 C   0  0  0  0  0  0  0  0  0  0  0  0
    2.1667   -1.2042    0.0000 C   0  0  0  0  0  0  0  0  0  0  0  0
    4.2292   -1.9917    0.0000 C   0  0  0  0  0  0  0  0  0  0  0  0
    3.6250   -1.4417    0.0000 C   0  0  0  0  0  0  0  0  0  0  0  0
    2.5792   -2.4792    0.0000 C   0  0  0  0  0  0  0  0  0  0  0  0
    1.7542   -2.4792    0.0000 C   0  0  0  0  0  0  0  0  0  0  0  0
    0.7167   -1.4417    0.0000 O   0  0  0  0  0  0  0  0  0  0  0  0
    4.0625   -2.8042    0.0000 O   0  0  0  0  0  0  0  0  0  0  0  0
    5.0167   -1.7417    0.0000 O   0  0  0  0  0  0  0  0  0  0  0  0
    2.1667   -0.3875    0.0000 C   0  0  0  0  0  0  0  0  0  0  0  0
    5.6250   -2.2917    0.0000 C   0  0  0  0  0  0  0  0  0  0  0  0
    1.4542    0.0250    0.0000 C   0  0  0  0  0  0  0  0  0  0  0  0
    0.7375    1.2625    0.0000 C   0  0  0  0  0  0  0  0  0  0  0  0
    1.4500    0.8500    0.0000 C   0  0  0  0  0  0  0  0  0  0  0  0
    0.7292    2.0958    0.0000 C   0  0  0  0  0  0  0  0  0  0  0  0
  2  3  1  0
  3  1  1  0
  4  5  1  0
  5  1  1  0
  6  1  1  0
  7  6  1  0
  8  2  2  0
  9  4  2  0
 10  4  1  0
 11  3  1  0
 12 10  1  0
 13 11  1  0
 14 15  1  0
 15 13  1  0
 16 14  1  0
  2  7  1  0
M  END
>  <ID>  (2166) 


>  <MOLENAME>  (2166) 
DIHYDROJASMONIC ACID. METHYL ESTER

>  <therap>  (2166) 
plant growth regulator

>  <ref>  (2166) 
Helv Chim Acta 57: 1301 (1974); Tet Lett 3413 (1974); JACS 97: 6144 (1975); PNAS 98: 4788 (2001)

>  <cas#>  (2166) 
24851-98-7

>  <source>  (2166) 
Jasminium spp and Vicia faba

>  <status>  (2166) 
experimental

>  <tradename>  (2166) 
nan

>  <SMILES>  (2166) 
CCCCCC1C(=O)CCC1CC(=O)OC

>  <standardized_failed>  (2166) 
False

$$$$

     RDKit          2D

 85 95  0  0  0  0  0  0  0  0999 V2000
    9.6042   -2.1917    0.0000 C   0  0  0  0  0  0  0  0  0  0  0  0
    2.7292   -7.9042    0.0000 C   0  0  0  0  0  0  0  0  0  0  0  0
    1.9792   -8.1792    0.0000 C   0  0  0  0  0  0  0  0  0  0  0  0
    9.6042   -2.9292    0.0000 C   0  0  0  0  0  0  0  0  0  0  0  0
    3.9917  -10.4042    0.0000 C   0  0  0  0  0  0  0  0  0  0  0  0
   11.2542   -1.3042    0.0000 C   0  0  0  0  0  0  0  0  0  0  0  0
   10.7625   -2.4042    0.0000 C   0  0  0  0  0  0  0  0  0  0  0  0
   10.3125   -1.8500    0.0000 C   0  0  0  0  0  0  0  0  0  0  0  0
    2.8667   -7.1167    0.0000 C   0  0  0  0  0  0  0  0  0  0  0  0
    7.6917   -3.3000    0.0000 C   0  0  0  0  0  0  0  0  0  0  0  0
    3.3125   -9.2042    0.0000 C   0  0  0  0  0  0  0  0  0  0  0  0
    4.8750  -11.6042    0.0000 C   0  0  0  0  0  0  0  0  0  0  0  0
   11.4042   -2.0417    0.0000 O   0  0  0  0  0  0  0  0  0  0  0  0
    5.2292   -5.0667    0.0000 C   0  0  0  0  0  0  0  0  0  0  0  0
    4.0000   -9.6042    0.0000 C   0  0  0  0  0  0  0  0  0  0  0  0
    4.1542   -6.2500    0.0000 C   0  0  0  0  0  0  0  0  0  0  0  0
    8.9667   -3.3000    0.0000 C   0  0  0  0  0  0  0  0  0  0  0  0
    5.6375  -11.8167    0.0000 C   0  0  0  0  0  0  0  0  0  0  0  0
   10.4042   -3.1375    0.0000 C   0  0  0  0  0  0  0  0  0  0  0  0
    5.4792   -5.8292    0.0000 C   0  0  0  0  0  0  0  0  0  0  0  0
    4.9417   -6.4167    0.0000 C   0  0  0  0  0  0  0  0  0  0  0  0
    8.3292   -2.9292    0.0000 C   0  0  0  0  0  0  0  0  0  0  0  0
    0.5417   -9.9417    0.0000 C   0  0  0  0  0  0  0  0  0  0  0  0
    5.8292  -12.5917    0.0000 C   0  0  0  0  0  0  0  0  0  0  0  0
    0.9375   -9.2417    0.0000 C   0  0  0  0  0  0  0  0  0  0  0  0
    3.3042   -8.4042    0.0000 O   0  0  0  0  0  0  0  0  0  0  0  0
    4.6875  -10.8167    0.0000 O   0  0  0  0  0  0  0  0  0  0  0  0
    2.2542   -6.6042    0.0000 O   0  0  0  0  0  0  0  0  0  0  0  0
    4.3000  -12.1625    0.0000 O   0  0  0  0  0  0  0  0  0  0  0  0
    2.6167   -9.6042    0.0000 O   0  0  0  0  0  0  0  0  0  0  0  0
    4.4500   -4.9000    0.0000 O   0  0  0  0  0  0  0  0  0  0  0  0
    3.6167   -6.8417    0.0000 O   0  0  0  0  0  0  0  0  0  0  0  0
    1.8417   -8.9750    0.0000 O   0  0  0  0  0  0  0  0  0  0  0  0
    1.3667   -7.6667    0.0000 C   0  0  0  0  0  0  0  0  0  0  0  0
    3.3042  -10.8042    0.0000 C   0  0  0  0  0  0  0  0  0  0  0  0
    5.2542  -13.1500    0.0000 C   0  0  0  0  0  0  0  0  0  0  0  0
    3.9125   -5.4917    0.0000 C   0  0  0  0  0  0  0  0  0  0  0  0
   -0.2583   -9.9542    0.0000 C   0  0  0  0  0  0  0  0  0  0  0  0
   10.5292   -1.1500    0.0000 C   0  0  0  0  0  0  0  0  0  0  0  0
    1.5042   -6.8792    0.0000 C   0  0  0  0  0  0  0  0  0  0  0  0
    2.6125  -10.4000    0.0000 C   0  0  0  0  0  0  0  0  0  0  0  0
    4.4917  -12.9292    0.0000 C   0  0  0  0  0  0  0  0  0  0  0  0
    7.0542   -2.9292    0.0000 C   0  0  0  0  0  0  0  0  0  0  0  0
    7.6917   -4.0292    0.0000 C   0  0  0  0  0  0  0  0  0  0  0  0
   11.7667   -0.5167    0.0000 O   0  0  0  0  0  0  0  0  0  0  0  0
    5.7625   -4.4667    0.0000 O   0  0  0  0  0  0  0  0  0  0  0  0
    0.5292   -8.5625    0.0000 O   0  0  0  0  0  0  0  0  0  0  0  0
    8.9667   -1.8292    0.0000 C   0  0  0  0  0  0  0  0  0  0  0  0
    6.4292   -4.0292    0.0000 C   0  0  0  0  0  0  0  0  0  0  0  0
    8.3292   -2.1917    0.0000 C   0  0  0  0  0  0  0  0  0  0  0  0
    8.9667   -4.0292    0.0000 C   0  0  0  0  0  0  0  0  0  0  0  0
    7.0542   -4.3917    0.0000 C   0  0  0  0  0  0  0  0  0  0  0  0
    6.4292   -3.3000    0.0000 C   0  0  0  0  0  0  0  0  0  0  0  0
   -0.6583   -9.2667    0.0000 C   0  0  0  0  0  0  0  0  0  0  0  0
   12.1042   -1.0667    0.0000 C   0  0  0  0  0  0  0  0  0  0  0  0
   -0.2625   -8.5667    0.0000 C   0  0  0  0  0  0  0  0  0  0  0  0
    8.3292   -4.3917    0.0000 C   0  0  0  0  0  0  0  0  0  0  0  0
    4.5375   -9.1750    0.0000 O   0  0  0  0  0  0  0  0  0  0  0  0
    6.2667   -5.9875    0.0000 O   0  0  0  0  0  0  0  0  0  0  0  0
    6.2167  -11.3042    0.0000 O   0  0  0  0  0  0  0  0  0  0  0  0
    0.9542  -10.6417    0.0000 O   0  0  0  0  0  0  0  0  0  0  0  0
   10.8125   -3.6875    0.0000 O   0  0  0  0  0  0  0  0  0  0  0  0
    5.1792   -7.1875    0.0000 O   0  0  0  0  0  0  0  0  0  0  0  0
    6.6000  -12.8167    0.0000 O   0  0  0  0  0  0  0  0  0  0  0  0
    3.3125  -11.6167    0.0000 O   0  0  0  0  0  0  0  0  0  0  0  0
    0.6042   -7.9417    0.0000 O   0  0  0  0  0  0  0  0  0  0  0  0
    5.4417  -13.9292    0.0000 O   0  0  0  0  0  0  0  0  0  0  0  0
   -0.6583  -10.6542    0.0000 O   0  0  0  0  0  0  0  0  0  0  0  0
    9.6417   -1.5250    0.0000 C   0  0  0  0  0  0  0  0  0  0  0  0
   12.5000   -0.7375    0.0000 C   0  0  0  0  0  0  0  0  0  0  0  0
    7.7042   -2.5250    0.0000 C   0  0  0  0  0  0  0  0  0  0  0  0
   -1.4625   -9.2750    0.0000 O   0  0  0  0  0  0  0  0  0  0  0  0
    5.7917   -2.9375    0.0000 O   0  0  0  0  0  0  0  0  0  0  0  0
   12.8625   -1.4292    0.0000 C   0  0  0  0  0  0  0  0  0  0  0  0
    3.1167   -5.3167    0.0000 C   0  0  0  0  0  0  0  0  0  0  0  0
    3.9250  -13.4792    0.0000 C   0  0  0  0  0  0  0  0  0  0  0  0
    0.8875   -6.3667    0.0000 C   0  0  0  0  0  0  0  0  0  0  0  0
    1.9125  -10.7917    0.0000 C   0  0  0  0  0  0  0  0  0  0  0  0
   13.1917   -0.3750    0.0000 C   0  0  0  0  0  0  0  0  0  0  0  0
   10.0125   -0.6292    0.0000 C   0  0  0  0  0  0  0  0  0  0  0  0
    1.9000  -11.5917    0.0000 O   0  0  0  0  0  0  0  0  0  0  0  0
    0.1375   -6.6417    0.0000 O   0  0  0  0  0  0  0  0  0  0  0  0
    3.1625  -13.2667    0.0000 O   0  0  0  0  0  0  0  0  0  0  0  0
    2.8750   -4.5542    0.0000 O   0  0  0  0  0  0  0  0  0  0  0  0
   13.7125   -0.8792    0.0000 C   0  0  0  0  0  0  0  0  0  0  0  0
  2  9  1  0
  3  2  1  0
  4  1  1  0
  5 15  1  0
  6 39  1  0
  7  8  1  0
  8  1  1  0
  9 32  1  1
 10 22  1  0
 11 26  1  1
 12 27  1  1
 13  7  1  0
 14 46  1  1
 15 11  1  0
 16 37  1  0
 17  4  1  0
 18 12  1  0
 19  4  1  0
 20 14  1  0
 21 20  1  0
 22 50  1  0
 23 25  1  0
 24 18  1  0
 25 33  1  1
  2 26  1  6
  5 27  1  1
 28  9  1  0
 29 12  1  0
 30 11  1  0
 31 14  1  0
 16 32  1  1
  3 33  1  1
 34 40  1  0
 35 41  1  0
 36 42  1  0
 37 31  1  0
 38 23  1  0
 39  8  1  0
 40 28  1  0
 41 30  1  0
 42 29  1  0
 43 10  1  0
 44 10  1  0
  6 45  1  0
 49 46  1  6
 47 25  1  0
 48  1  1  0
 49 52  1  0
 50 48  1  0
 51 17  1  0
 44 52  1  1
 53 43  1  0
 54 56  1  0
  6 55  1  1
 56 47  1  0
 57 51  1  0
 15 58  1  6
 20 59  1  6
 18 60  1  6
 23 61  1  6
 62 19  1  0
 21 63  1  1
 24 64  1  1
 35 65  1  1
 34 66  1  6
 36 67  1  6
 38 68  1  1
  1 69  1  1
 70 45  1  0
 10 71  1  1
 54 72  1  6
 53 73  1  6
 74 55  1  0
 37 75  1  1
 42 76  1  1
 40 77  1  1
 41 78  1  1
 79 74  1  0
 39 80  1  6
 81 78  1  0
 82 77  1  0
 83 76  1  0
 84 75  1  0
 79 85  1  6
 19  7  1  0
 17 22  1  0
 13  6  1  0
 44 57  1  0
 53 49  1  0
 70 79  1  0
 16 21  1  0
 34  3  1  0
 35  5  1  0
 54 38  1  0
 36 24  1  0
M  END
>  <ID>  (2167) 


>  <MOLENAME>  (2167) 
DIGITONIN

>  <therap>  (2167) 
nan

>  <ref>  (2167) 
Tetrahedron 19: 621 (1963)

>  <cas#>  (2167) 
11024-24-1

>  <source>  (2167) 
Digitalis purpurea

>  <status>  (2167) 
undetermined activity

>  <tradename>  (2167) 
nan

>  <SMILES>  (2167) 
C[C@H]1C2C(O[C@]13CC[C@@H](C)CO3)C(O)C1C3CC[C@H]4C[C@H](O[C@@H]5O[C@H](CO)[C@H](O[C@@H]6O[C@H](CO)[C@@H](O)[C@H](O[C@@H]7OC[C@@H](O)[C@H](O)[C@H]7O)[C@H]6O[C@@H]6O[C@H](CO)[C@H](O)[C@H](O[C@@H]7O[C@H](CO)[C@@H](O)[C@H](O)[C@H]7O)[C@H]6O)[C@H](O)[C@H]5O)[C@H](O)C[C@]4(C)C3CC[C@@]12C

>  <standardized_failed>  (2167) 
False

$$$$

     RDKit          2D

 18 20  0  0  0  0  0  0  0  0999 V2000
   10.6000   -1.7083    0.0000 C   0  0  0  0  0  0  0  0  0  0  0  0
   10.6042   -2.5375    0.0000 C   0  0  0  0  0  0  0  0  0  0  0  0
    9.1750   -2.5417    0.0000 C   0  0  0  0  0  0  0  0  0  0  0  0
    9.8917   -2.9542    0.0000 C   0  0  0  0  0  0  0  0  0  0  0  0
    9.8833   -1.3000    0.0000 O   0  0  0  0  0  0  0  0  0  0  0  0
    9.1750   -1.7167    0.0000 C   0  0  0  0  0  0  0  0  0  0  0  0
    8.4583   -2.9583    0.0000 C   0  0  0  0  0  0  0  0  0  0  0  0
   11.3083   -1.2917    0.0000 C   0  0  0  0  0  0  0  0  0  0  0  0
    9.8917   -3.7792    0.0000 O   0  0  0  0  0  0  0  0  0  0  0  0
    8.4583   -1.3042    0.0000 C   0  0  0  0  0  0  0  0  0  0  0  0
    7.7458   -2.5458    0.0000 C   0  0  0  0  0  0  0  0  0  0  0  0
    7.7458   -1.7167    0.0000 C   0  0  0  0  0  0  0  0  0  0  0  0
    7.0292   -2.9583    0.0000 O   0  0  0  0  0  0  0  0  0  0  0  0
   12.0250   -1.7042    0.0000 C   0  0  0  0  0  0  0  0  0  0  0  0
   11.3042   -0.4708    0.0000 C   0  0  0  0  0  0  0  0  0  0  0  0
   12.0125   -0.0542    0.0000 C   0  0  0  0  0  0  0  0  0  0  0  0
   12.7375   -1.2875    0.0000 C   0  0  0  0  0  0  0  0  0  0  0  0
   12.7333   -0.4625    0.0000 C   0  0  0  0  0  0  0  0  0  0  0  0
  2  1  2  0
  3  6  2  0
  4  2  1  0
  5  1  1  0
  6  5  1  0
  7  3  1  0
  8  1  1  0
  9  4  2  0
 10  6  1  0
 11 12  1  0
 12 10  2  0
 13 11  1  0
 14  8  2  0
 15  8  1  0
 16 15  2  0
 17 14  1  0
 18 16  1  0
  4  3  1  0
 18 17  2  0
  7 11  2  0
M  END
>  <ID>  (2168) 


>  <MOLENAME>  (2168) 
6-HYDROXYFLAVONE

>  <therap>  (2168) 
nan

>  <ref>  (2168) 
Ber 32:326 {1899}; 59:2918 {1926}; J Org Chem 27:381 {1962}

>  <cas#>  (2168) 
6665-83-4

>  <source>  (2168) 
Piimelia decora

>  <status>  (2168) 
undetermined activity

>  <tradename>  (2168) 
nan

>  <SMILES>  (2168) 
O=c1cc(-c2ccccc2)oc2c1cc(O)cc2

>  <standardized_failed>  (2168) 
False

$$$$

     RDKit          2D

 21 23  0  0  0  0  0  0  0  0999 V2000
    3.1292   -2.3792    0.0000 C   0  0  0  0  0  0  0  0  0  0  0  0
    3.8417   -2.7917    0.0000 C   0  0  0  0  0  0  0  0  0  0  0  0
    4.5542   -1.5542    0.0000 C   0  0  0  0  0  0  0  0  0  0  0  0
    4.5542   -2.3792    0.0000 C   0  0  0  0  0  0  0  0  0  0  0  0
    3.1292   -1.5542    0.0000 C   0  0  0  0  0  0  0  0  0  0  0  0
    3.8417   -1.1417    0.0000 O   0  0  0  0  0  0  0  0  0  0  0  0
    2.4167   -2.7917    0.0000 C   0  0  0  0  0  0  0  0  0  0  0  0
    2.4167   -1.1417    0.0000 C   0  0  0  0  0  0  0  0  0  0  0  0
    1.7000   -2.3792    0.0000 C   0  0  0  0  0  0  0  0  0  0  0  0
    5.2667   -1.1417    0.0000 C   0  0  0  0  0  0  0  0  0  0  0  0
    1.7000   -1.5542    0.0000 C   0  0  0  0  0  0  0  0  0  0  0  0
    3.8417   -3.6167    0.0000 O   0  0  0  0  0  0  0  0  0  0  0  0
    5.2667   -0.3167    0.0000 C   0  0  0  0  0  0  0  0  0  0  0  0
    5.9875   -1.5542    0.0000 C   0  0  0  0  0  0  0  0  0  0  0  0
    2.4167   -3.6167    0.0000 O   0  0  0  0  0  0  0  0  0  0  0  0
    6.7042   -0.3167    0.0000 C   0  0  0  0  0  0  0  0  0  0  0  0
    5.9792    0.0958    0.0000 C   0  0  0  0  0  0  0  0  0  0  0  0
    6.7042   -1.1417    0.0000 C   0  0  0  0  0  0  0  0  0  0  0  0
    0.9792   -1.1417    0.0000 O   0  0  0  0  0  0  0  0  0  0  0  0
    7.4167    0.1000    0.0000 O   0  0  0  0  0  0  0  0  0  0  0  0
    0.9792   -0.3167    0.0000 C   0  0  0  0  0  0  0  0  0  0  0  0
  2  1  1  0
  3  6  1  0
  4  2  1  0
  5  1  2  0
  6  5  1  0
  7  1  1  0
  8  5  1  0
  9  7  2  0
 10  3  1  0
 11  9  1  0
 12  2  2  0
 13 10  2  0
 14 10  1  0
 15  7  1  0
 16 18  1  0
 17 13  1  0
 18 14  2  0
 19 11  1  0
 20 16  1  0
 21 19  1  0
  3  4  2  0
 11  8  2  0
 17 16  2  0
M  END
>  <ID>  (2169) 


>  <MOLENAME>  (2169) 
GENKWANIN

>  <therap>  (2169) 
nan

>  <ref>  (2169) 
nan

>  <cas#>  (2169) 
437-64-9

>  <source>  (2169) 
widespread in plants

>  <status>  (2169) 
undetermined activity

>  <tradename>  (2169) 
nan

>  <SMILES>  (2169) 
COc1cc2c(c(O)c1)c(=O)cc(-c1ccc(O)cc1)o2

>  <standardized_failed>  (2169) 
False

$$$$

     RDKit          2D

 12 13  0  0  0  0  0  0  0  0999 V2000
    1.8375   -4.4375    0.0000 N   0  0  0  0  0  0  0  0  0  0  0  0
    2.5792   -4.1000    0.0000 C   0  0  0  0  0  0  0  0  0  0  0  0
    2.5000   -3.2792    0.0000 C   0  0  0  0  0  0  0  0  0  0  0  0
    1.6917   -3.1042    0.0000 C   0  0  0  0  0  0  0  0  0  0  0  0
    1.2792   -3.8167    0.0000 C   0  0  0  0  0  0  0  0  0  0  0  0
    4.5125   -2.4542    0.0000 N   0  0  0  0  0  0  0  0  0  0  0  0
    3.1167   -2.7375    0.0000 C   0  0  0  0  0  0  0  0  0  0  0  0
    1.2792   -2.3917    0.0000 C   0  0  0  0  0  0  0  0  0  0  0  0
    0.4500   -3.8167    0.0000 C   0  0  0  0  0  0  0  0  0  0  0  0
    3.8917   -3.0000    0.0000 C   0  0  0  0  0  0  0  0  0  0  0  0
    0.4500   -2.3917    0.0000 C   0  0  0  0  0  0  0  0  0  0  0  0
    0.0375   -3.1042    0.0000 C   0  0  0  0  0  0  0  0  0  0  0  0
  2  1  1  0
  3  2  2  0
  4  5  2  0
  5  1  1  0
  6 10  1  0
  7  3  1  0
  8  4  1  0
  9  5  1  0
 10  7  1  0
 11 12  1  0
 12  9  2  0
  3  4  1  0
 11  8  2  0
M  END
>  <ID>  (2170) 


>  <MOLENAME>  (2170) 
TRYPTAMINE

>  <therap>  (2170) 
psychotropic

>  <ref>  (2170) 
J Chem Soc 99:270 (1911); J Sci Technol Sect B 25:157 (1944); 33:54 (1951); 38:718 (1957)

>  <cas#>  (2170) 
61-54-1

>  <source>  (2170) 
Acacia spp, Lens esculenta, Prosopsis juliflora and fungi Ponaeolus foenisicii and Coprinus micaceus

>  <status>  (2170) 
experimental

>  <tradename>  (2170) 
nan

>  <SMILES>  (2170) 
NCCc1c[nH]c2c1cccc2

>  <standardized_failed>  (2170) 
False

$$$$

     RDKit          2D

 28 30  0  0  0  0  0  0  0  0999 V2000
    5.5167   -3.5250    0.0000 C   0  0  0  0  0  0  0  0  0  0  0  0
    6.3167   -3.3417    0.0000 C   0  0  0  0  0  0  0  0  0  0  0  0
    4.8792   -3.0125    0.0000 C   0  0  0  0  0  0  0  0  0  0  0  0
    4.1667   -3.4250    0.0000 C   0  0  0  0  0  0  0  0  0  0  0  0
    6.9667   -3.8542    0.0000 C   0  0  0  0  0  0  0  0  0  0  0  0
    3.4542   -3.0125    0.0000 C   0  0  0  0  0  0  0  0  0  0  0  0
    5.1667   -4.2542    0.0000 C   0  0  0  0  0  0  0  0  0  0  0  0
    4.8792   -2.1875    0.0000 C   0  0  0  0  0  0  0  0  0  0  0  0
    6.9667   -4.6792    0.0000 C   0  0  0  0  0  0  0  0  0  0  0  0
    6.6792   -2.6042    0.0000 C   0  0  0  0  0  0  0  0  0  0  0  0
    3.4542   -2.1875    0.0000 C   0  0  0  0  0  0  0  0  0  0  0  0
    6.3292   -5.2000    0.0000 C   0  0  0  0  0  0  0  0  0  0  0  0
    5.5167   -5.0125    0.0000 C   0  0  0  0  0  0  0  0  0  0  0  0
    7.5042   -2.6125    0.0000 N   0  0  0  0  0  0  0  0  0  0  0  0
    4.1667   -1.7750    0.0000 C   0  0  0  0  0  0  0  0  0  0  0  0
    7.9167   -3.3292    0.0000 C   0  0  0  0  0  0  0  0  0  0  0  0
    5.5167   -1.6750    0.0000 C   0  0  0  0  0  0  0  0  0  0  0  0
    7.7167   -5.0417    0.0000 O   0  0  0  0  0  0  0  0  0  0  0  0
    6.3167   -1.8542    0.0000 C   0  0  0  0  0  0  0  0  0  0  0  0
    8.7417   -3.3292    0.0000 O   0  0  0  0  0  0  0  0  0  0  0  0
    4.1667   -4.2417    0.0000 O   0  0  0  0  0  0  0  0  0  0  0  0
    2.7292   -3.4250    0.0000 O   0  0  0  0  0  0  0  0  0  0  0  0
    6.5167   -6.0042    0.0000 O   0  0  0  0  0  0  0  0  0  0  0  0
    2.7292   -1.7667    0.0000 O   0  0  0  0  0  0  0  0  0  0  0  0
    7.4917   -4.0417    0.0000 C   0  0  0  0  0  0  0  0  0  0  0  0
    3.4542   -4.6625    0.0000 C   0  0  0  0  0  0  0  0  0  0  0  0
    2.7292   -4.2417    0.0000 C   0  0  0  0  0  0  0  0  0  0  0  0
    2.7292   -0.9375    0.0000 C   0  0  0  0  0  0  0  0  0  0  0  0
  2  1  1  0
  3  1  1  0
  4  3  2  0
  5  2  2  0
  6  4  1  0
  7  1  2  0
  8  3  1  0
  9  5  1  0
 10  2  1  0
 11 15  1  0
 12 13  2  0
 13  7  1  0
 10 14  1  6
 15  8  2  0
 16 14  1  0
 17  8  1  0
 18  9  2  0
 19 10  1  0
 20 16  2  0
 21  4  1  0
 22  6  1  0
 23 12  1  0
 24 11  1  0
 25 16  1  0
 26 21  1  0
 27 22  1  0
 28 24  1  0
 12  9  1  0
 19 17  1  0
 11  6  2  0
M  END
>  <ID>  (2171) 


>  <MOLENAME>  (2171) 
COLCHICEINE

>  <therap>  (2171) 
antimitotic

>  <ref>  (2171) 
Col Czech Chem Commun 19: 805 (1954)

>  <cas#>  (2171) 
477-27-0

>  <source>  (2171) 
Colchicum autumnale

>  <status>  (2171) 
experimental

>  <tradename>  (2171) 
nan

>  <SMILES>  (2171) 
COc1c(OC)c(OC)c2c(c1)CC[C@H](NC(C)=O)c1cc(=O)c(O)ccc1-2

>  <standardized_failed>  (2171) 
False

$$$$

     RDKit          2D

 22 24  0  0  0  0  0  0  0  0999 V2000
   -0.0458   -0.6542    0.0000 C   0  0  0  0  0  0  0  0  0  0  0  0
    1.3917   -1.4792    0.0000 C   0  0  0  0  0  0  0  0  0  0  0  0
    1.3917   -0.6417    0.0000 C   0  0  0  0  0  0  0  0  0  0  0  0
   -0.0458   -1.4875    0.0000 C   0  0  0  0  0  0  0  0  0  0  0  0
    0.6750   -1.8917    0.0000 C   0  0  0  0  0  0  0  0  0  0  0  0
    0.6667   -0.2292    0.0000 C   0  0  0  0  0  0  0  0  0  0  0  0
   -0.7625   -0.2417    0.0000 C   0  0  0  0  0  0  0  0  0  0  0  0
    2.1167   -1.8917    0.0000 C   0  0  0  0  0  0  0  0  0  0  0  0
   -0.7625   -1.8917    0.0000 C   0  0  0  0  0  0  0  0  0  0  0  0
    2.1042   -0.2292    0.0000 C   0  0  0  0  0  0  0  0  0  0  0  0
    2.8292   -0.6375    0.0000 C   0  0  0  0  0  0  0  0  0  0  0  0
   -1.4750   -1.4792    0.0000 C   0  0  0  0  0  0  0  0  0  0  0  0
   -1.4750   -0.6542    0.0000 C   0  0  0  0  0  0  0  0  0  0  0  0
    2.8375   -1.4667    0.0000 C   0  0  0  0  0  0  0  0  0  0  0  0
    0.6625    0.5958    0.0000 O   0  0  0  0  0  0  0  0  0  0  0  0
    0.6667   -2.7167    0.0000 O   0  0  0  0  0  0  0  0  0  0  0  0
   -0.7708    0.5833    0.0000 O   0  0  0  0  0  0  0  0  0  0  0  0
    2.1125   -2.7167    0.0000 O   0  0  0  0  0  0  0  0  0  0  0  0
    2.1042    0.5958    0.0000 O   0  0  0  0  0  0  0  0  0  0  0  0
   -0.7708   -2.7167    0.0000 O   0  0  0  0  0  0  0  0  0  0  0  0
   -2.1958   -1.8917    0.0000 C   0  0  0  0  0  0  0  0  0  0  0  0
    3.5417   -0.2167    0.0000 C   0  0  0  0  0  0  0  0  0  0  0  0
  2  3  2  0
  3  6  1  0
  4  1  2  0
  5  4  1  0
  6  1  1  0
  7  1  1  0
  8  2  1  0
  9  4  1  0
 10  3  1  0
 11 10  2  0
 12 13  1  0
 13  7  2  0
 14 11  1  0
 15  6  2  0
 16  5  2  0
 17  7  1  0
 18  8  1  0
 19 10  1  0
 20  9  1  0
 21 12  1  0
 22 11  1  0
  5  2  1  0
 12  9  2  0
  8 14  2  0
M  END
>  <ID>  (2172) 


>  <MOLENAME>  (2172) 
1.4.5.8-TETRAHYDROXY-2.6-DIMETHYLANTHROQUINONE

>  <therap>  (2172) 
nan

>  <ref>  (2172) 
Arch Pharm 294: 521 (1961); Aust J Chem 21: 783 (1968)

>  <cas#>  (2172) 
19079-10-8

>  <source>  (2172) 
Phoma terrestris and Curvularia lunata

>  <status>  (2172) 
undetermined activity

>  <tradename>  (2172) 
nan

>  <SMILES>  (2172) 
Cc1c(O)c2c(C(=O)c3c(C2=O)c(O)cc(C)c3O)c(O)c1

>  <standardized_failed>  (2172) 
False

$$$$

     RDKit          2D

 10  9  0  0  0  0  0  0  0  0999 V2000
    8.9292   -5.8042    0.0000 Cl  0  0  0  0  0  0  0  0  0  0  0  0
    7.9000   -4.8667    0.0000 N   0  0  0  0  0  0  0  0  0  0  0  0
    5.7625   -5.2833    0.0000 C   0  0  0  0  0  0  0  0  0  0  0  0
    7.1875   -5.2792    0.0000 C   0  0  0  0  0  0  0  0  0  0  0  0
    6.4750   -4.8667    0.0000 C   0  0  0  0  0  0  0  0  0  0  0  0
    5.7625   -6.1125    0.0000 C   0  0  0  0  0  0  0  0  0  0  0  0
    5.0458   -4.8708    0.0000 C   0  0  0  0  0  0  0  0  0  0  0  0
    5.0458   -6.5250    0.0000 C   0  0  0  0  0  0  0  0  0  0  0  0
    4.3333   -5.2875    0.0000 C   0  0  0  0  0  0  0  0  0  0  0  0
    4.3333   -6.1125    0.0000 C   0  0  0  0  0  0  0  0  0  0  0  0
  3  5  1  0
  4  2  1  0
  5  4  1  0
  6  3  2  0
  7  3  1  0
  8  6  1  0
  9  7  2  0
 10  9  1  0
  8 10  2  0
M  END
>  <ID>  (2173) 


>  <MOLENAME>  (2173) 
PHENETHYLAMINE HYDROCHLORIDE

>  <therap>  (2173) 
CNS stimulant

>  <ref>  (2173) 
J Pharm Pharmacol 15:472 (1963); J Pharmacol Exp Ther 187:365 (1973);  Science 206:470 (1979)

>  <cas#>  (2173) 
156-28-5, 64-04-0 (base)

>  <source>  (2173) 
Prunus dulcis, chocolate

>  <status>  (2173) 
experimental

>  <tradename>  (2173) 
nan

>  <SMILES>  (2173) 
NCCc1ccccc1

>  <standardized_failed>  (2173) 
False

$$$$

     RDKit          2D

  7  6  0  0  0  0  0  0  0  0999 V2000
    2.1042   -0.4917    0.0000 C   0  0  0  0  0  0  0  0  0  0  0  0
    4.9542   -0.4792    0.0000 C   0  0  0  0  0  0  0  0  0  0  0  0
    1.3917   -0.9042    0.0000 C   0  0  0  0  0  0  0  0  0  0  0  0
    5.6667   -0.8917    0.0000 C   0  0  0  0  0  0  0  0  0  0  0  0
    3.5292   -0.4875    0.0000 S   0  0  0  0  0  0  0  0  0  0  0  0
    2.8167   -0.9000    0.0000 C   0  0  0  0  0  0  0  0  0  0  0  0
    4.2417   -0.8917    0.0000 C   0  0  0  0  0  0  0  0  0  0  0  0
  2  7  1  0
  3  1  2  0
  4  2  2  0
  5  6  1  0
  6  1  1  0
  7  5  1  0
M  END
>  <ID>  (2174) 


>  <MOLENAME>  (2174) 
DIALLYL SULFIDE

>  <therap>  (2174) 
antibacterial, antifungal, antineoplastic, antihypercholesterolaemic, hepatoprotectant

>  <ref>  (2174) 
Arch Biochem Biophys 107:137 (1964); JACS 104:312 (1982); Cancer Lett 64:39 (1992); 118:61 (1997);J Nutrition 131:1041S (2001)

>  <cas#>  (2174) 
592-88-1

>  <source>  (2174) 
Allium spp, Wasabia japonica

>  <status>  (2174) 
experimental

>  <tradename>  (2174) 
nan

>  <SMILES>  (2174) 
C=CCSCC=C

>  <standardized_failed>  (2174) 
False

$$$$

     RDKit          2D

 31 34  0  0  0  0  0  0  0  0999 V2000
    6.3417   -3.1167    0.0000 C   0  0  0  0  0  0  0  0  0  0  0  0
    4.1917   -4.3375    0.0000 C   0  0  0  0  0  0  0  0  0  0  0  0
    4.1875   -5.1625    0.0000 C   0  0  0  0  0  0  0  0  0  0  0  0
    6.3292   -3.9417    0.0000 C   0  0  0  0  0  0  0  0  0  0  0  0
    4.9042   -3.9250    0.0000 C   0  0  0  0  0  0  0  0  0  0  0  0
    5.6125   -4.3417    0.0000 C   0  0  0  0  0  0  0  0  0  0  0  0
    7.1250   -2.8792    0.0000 C   0  0  0  0  0  0  0  0  0  0  0  0
    4.9000   -5.5750    0.0000 C   0  0  0  0  0  0  0  0  0  0  0  0
    5.6292   -2.6917    0.0000 C   0  0  0  0  0  0  0  0  0  0  0  0
    5.6167   -5.1667    0.0000 C   0  0  0  0  0  0  0  0  0  0  0  0
    4.9125   -3.1000    0.0000 C   0  0  0  0  0  0  0  0  0  0  0  0
    7.1042   -4.2042    0.0000 C   0  0  0  0  0  0  0  0  0  0  0  0
    3.4792   -3.9167    0.0000 C   0  0  0  0  0  0  0  0  0  0  0  0
    7.6000   -3.5500    0.0000 C   0  0  0  0  0  0  0  0  0  0  0  0
    3.4792   -5.5667    0.0000 C   0  0  0  0  0  0  0  0  0  0  0  0
    1.3417   -5.1625    0.0000 C   0  0  0  0  0  0  0  0  0  0  0  0
    2.0542   -5.5750    0.0000 O   0  0  0  0  0  0  0  0  0  0  0  0
    2.7667   -5.1625    0.0000 C   0  0  0  0  0  0  0  0  0  0  0  0
    1.3375   -4.3375    0.0000 O   0  0  0  0  0  0  0  0  0  0  0  0
    7.5292   -2.1625    0.0000 C   0  0  0  0  0  0  0  0  0  0  0  0
    2.7667   -4.3375    0.0000 C   0  0  0  0  0  0  0  0  0  0  0  0
    6.3375   -2.2917    0.0000 C   0  0  0  0  0  0  0  0  0  0  0  0
    4.1875   -3.5125    0.0000 C   0  0  0  0  0  0  0  0  0  0  0  0
    8.7750   -2.8625    0.0000 C   0  0  0  0  0  0  0  0  0  0  0  0
    0.6250   -5.5750    0.0000 C   0  0  0  0  0  0  0  0  0  0  0  0
    8.3542   -2.1542    0.0000 C   0  0  0  0  0  0  0  0  0  0  0  0
    7.1125   -1.4500    0.0000 C   0  0  0  0  0  0  0  0  0  0  0  0
    9.6000   -2.8542    0.0000 C   0  0  0  0  0  0  0  0  0  0  0  0
   10.0167   -3.5667    0.0000 C   0  0  0  0  0  0  0  0  0  0  0  0
    9.6125   -4.2792    0.0000 C   0  0  0  0  0  0  0  0  0  0  0  0
   10.8417   -3.5542    0.0000 C   0  0  0  0  0  0  0  0  0  0  0  0
  2  5  1  0
  3  2  1  0
  4  1  1  0
  5 11  1  0
  6  4  1  0
  7  1  1  0
  8 10  1  0
  9  1  1  0
 10  6  1  0
 11  9  1  0
 12  4  1  0
 13  2  1  0
 14  7  1  0
 15  3  1  0
 16 17  1  0
 18 17  1  1
 18 21  1  0
 19 16  2  0
  7 20  1  1
 21 13  1  0
  1 22  1  1
  2 23  1  1
 24 26  1  0
 25 16  1  0
 26 20  1  0
 27 20  1  0
 28 24  1  0
 29 28  1  0
 30 29  1  0
 31 29  1  0
 14 12  1  0
  5  6  1  0
  8  3  2  0
 18 15  1  0
M  END
>  <ID>  (2175) 


>  <MOLENAME>  (2175) 
CHOLESTERYL ACETATE

>  <therap>  (2175) 
nan

>  <ref>  (2175) 
nan

>  <cas#>  (2175) 
604-35-3

>  <source>  (2175) 
animal tissue; derivative

>  <status>  (2175) 
undetermined activity

>  <tradename>  (2175) 
nan

>  <SMILES>  (2175) 
CC(=O)O[C@H]1CC[C@@]2(C)C(=CCC3C2CC[C@@]2(C)C3CC[C@@H]2C(C)CCCC(C)C)C1

>  <standardized_failed>  (2175) 
False

$$$$

     RDKit          2D

 10 10  0  0  0  0  0  0  0  0999 V2000
    0.8292   -0.7167    0.0000 C   0  0  0  0  0  0  0  0  0  0  0  0
    2.4792   -0.7167    0.0000 C   0  0  0  0  0  0  0  0  0  0  0  0
    4.5417   -1.4292    0.0000 N   0  0  0  0  0  0  0  0  0  0  0  0
    1.2417   -1.4292    0.0000 C   0  0  0  0  0  0  0  0  0  0  0  0
    1.2417   -0.0042    0.0000 C   0  0  0  0  0  0  0  0  0  0  0  0
    2.0667   -0.0042    0.0000 C   0  0  0  0  0  0  0  0  0  0  0  0
    2.0667   -1.4292    0.0000 C   0  0  0  0  0  0  0  0  0  0  0  0
    0.0042   -0.7167    0.0000 O   0  0  0  0  0  0  0  0  0  0  0  0
    3.7167   -1.4292    0.0000 C   0  0  0  0  0  0  0  0  0  0  0  0
    3.3042   -0.7167    0.0000 C   0  0  0  0  0  0  0  0  0  0  0  0
  2  6  1  0
  3  9  1  0
  4  1  2  0
  5  1  1  0
  6  5  2  0
  7  4  1  0
  8  1  1  0
  9 10  1  0
 10  2  1  0
  2  7  2  0
M  END
>  <ID>  (2176) 


>  <MOLENAME>  (2176) 
TYRAMINE

>  <therap>  (2176) 
adrenergic agonist

>  <ref>  (2176) 
nan

>  <cas#>  (2176) 
51-67-2

>  <source>  (2176) 
widespread in plants

>  <status>  (2176) 
experimental

>  <tradename>  (2176) 
nan

>  <SMILES>  (2176) 
NCCc1ccc(O)cc1

>  <standardized_failed>  (2176) 
False

$$$$

     RDKit          2D

 14 13  0  0  0  0  0  0  0  0999 V2000
    5.5917   -2.8542    0.0000 C   0  0  0  0  0  0  0  0  0  0  0  0
    5.5917   -3.6792    0.0000 C   0  0  0  0  0  0  0  0  0  0  0  0
    6.3042   -2.4417    0.0000 C   0  0  0  0  0  0  0  0  0  0  0  0
    6.3042   -4.0917    0.0000 C   0  0  0  0  0  0  0  0  0  0  0  0
    6.3042   -1.6167    0.0000 C   0  0  0  0  0  0  0  0  0  0  0  0
    6.3042   -4.9250    0.0000 C   0  0  0  0  0  0  0  0  0  0  0  0
    5.5917   -5.3375    0.0000 O   0  0  0  0  0  0  0  0  0  0  0  0
    7.0167   -1.2042    0.0000 O   0  0  0  0  0  0  0  0  0  0  0  0
    7.0167   -2.8542    0.0000 O   0  0  0  0  0  0  0  0  0  0  0  0
    7.0167   -3.6792    0.0000 O   0  0  0  0  0  0  0  0  0  0  0  0
    4.8792   -4.0917    0.0000 O   0  0  0  0  0  0  0  0  0  0  0  0
    4.8750   -2.4417    0.0000 O   0  0  0  0  0  0  0  0  0  0  0  0
    5.5875   -1.2042    0.0000 O   0  0  0  0  0  0  0  0  0  0  0  0
    7.0250   -5.3375    0.0000 O   0  0  0  0  0  0  0  0  0  0  0  0
  2  1  1  0
  3  1  1  0
  4  2  1  0
  5  3  1  0
  6  4  1  0
  7  6  2  0
  8  5  2  0
  9  3  1  0
 10  4  1  0
 11  2  1  0
 12  1  1  0
 13  5  1  0
 14  6  1  0
M  END
>  <ID>  (2177) 


>  <MOLENAME>  (2177) 
MUCIC ACID

>  <therap>  (2177) 
nan

>  <ref>  (2177) 
Nature 174: 930 (1974)

>  <cas#>  (2177) 
526-99-8

>  <source>  (2177) 
brown algae, various fruits and fungi

>  <status>  (2177) 
undetermined activity

>  <tradename>  (2177) 
nan

>  <SMILES>  (2177) 
O=C(O)C(O)C(O)C(O)C(O)C(=O)O

>  <standardized_failed>  (2177) 
False

$$$$

     RDKit          2D

 21 23  0  0  0  0  0  0  0  0999 V2000
    2.3542   -1.5000    0.0000 C   0  0  0  0  0  0  0  0  0  0  0  0
    1.7000   -1.8750    0.0000 C   0  0  0  0  0  0  0  0  0  0  0  0
    1.0417   -1.5000    0.0000 C   0  0  0  0  0  0  0  0  0  0  0  0
    2.3542   -0.7417    0.0000 C   0  0  0  0  0  0  0  0  0  0  0  0
    1.0417   -0.7417    0.0000 C   0  0  0  0  0  0  0  0  0  0  0  0
    1.7000   -0.3667    0.0000 O   0  0  0  0  0  0  0  0  0  0  0  0
    3.0042   -1.8750    0.0000 C   0  0  0  0  0  0  0  0  0  0  0  0
    0.3917   -1.8750    0.0000 C   0  0  0  0  0  0  0  0  0  0  0  0
    0.3917   -0.3667    0.0000 C   0  0  0  0  0  0  0  0  0  0  0  0
    1.7000   -2.6250    0.0000 O   0  0  0  0  0  0  0  0  0  0  0  0
    3.6542   -1.5000    0.0000 C   0  0  0  0  0  0  0  0  0  0  0  0
    3.0042   -2.6250    0.0000 C   0  0  0  0  0  0  0  0  0  0  0  0
   -0.2583   -0.7417    0.0000 C   0  0  0  0  0  0  0  0  0  0  0  0
   -0.2583   -1.5000    0.0000 C   0  0  0  0  0  0  0  0  0  0  0  0
    4.3000   -2.6250    0.0000 C   0  0  0  0  0  0  0  0  0  0  0  0
    3.6542   -3.0000    0.0000 C   0  0  0  0  0  0  0  0  0  0  0  0
    4.3000   -1.8750    0.0000 C   0  0  0  0  0  0  0  0  0  0  0  0
   -0.9083   -0.3667    0.0000 O   0  0  0  0  0  0  0  0  0  0  0  0
    4.9500   -3.0000    0.0000 O   0  0  0  0  0  0  0  0  0  0  0  0
    4.9500   -3.7500    0.0000 C   0  0  0  0  0  0  0  0  0  0  0  0
   -0.9083    0.3833    0.0000 C   0  0  0  0  0  0  0  0  0  0  0  0
  2  1  1  0
  3  2  1  0
  4  1  2  0
  5  6  1  0
  6  4  1  0
  7  1  1  0
  8  3  2  0
  9  5  2  0
 10  2  2  0
 11  7  2  0
 12  7  1  0
 13  9  1  0
 14  8  1  0
 15 16  1  0
 16 12  2  0
 17 11  1  0
 18 13  1  0
 19 15  1  0
 20 19  1  0
 21 18  1  0
 17 15  2  0
  5  3  1  0
 14 13  2  0
M  END
>  <ID>  (2178) 


>  <MOLENAME>  (2178) 
7.4'-DIMETHOXYISOFLAVONE

>  <therap>  (2178) 
nan

>  <ref>  (2178) 
nan

>  <cas#>  (2178) 
nan

>  <source>  (2178) 
Dalbergia violaceae, Pterodon apparicioi

>  <status>  (2178) 
undetermined activity

>  <tradename>  (2178) 
nan

>  <SMILES>  (2178) 
COc1ccc(-c2coc3cc(OC)ccc3c2=O)cc1

>  <standardized_failed>  (2178) 
False

$$$$

     RDKit          2D

 15 16  0  0  0  0  0  0  0  0999 V2000
    3.3750   -1.3292    0.0000 C   0  0  0  0  0  0  0  0  0  0  0  0
    3.4917   -2.0542    0.0000 C   0  0  0  0  0  0  0  0  0  0  0  0
    2.7000   -0.9792    0.0000 C   0  0  0  0  0  0  0  0  0  0  0  0
    1.9917   -1.3042    0.0000 C   0  0  0  0  0  0  0  0  0  0  0  0
    4.2125   -2.1667    0.0000 C   0  0  0  0  0  0  0  0  0  0  0  0
    4.0292   -1.0000    0.0000 C   0  0  0  0  0  0  0  0  0  0  0  0
    3.0500   -2.5000    0.0000 C   0  0  0  0  0  0  0  0  0  0  0  0
    4.5417   -1.5167    0.0000 C   0  0  0  0  0  0  0  0  0  0  0  0
    1.8542   -2.0250    0.0000 C   0  0  0  0  0  0  0  0  0  0  0  0
    2.3000   -2.5000    0.0000 C   0  0  0  0  0  0  0  0  0  0  0  0
    1.3417   -0.8000    0.0000 C   0  0  0  0  0  0  0  0  0  0  0  0
    4.1417   -0.2750    0.0000 C   0  0  0  0  0  0  0  0  0  0  0  0
    3.3667   -3.2542    0.0000 C   0  0  0  0  0  0  0  0  0  0  0  0
    1.4542    0.0208    0.0000 C   0  0  0  0  0  0  0  0  0  0  0  0
    0.5792   -1.1042    0.0000 C   0  0  0  0  0  0  0  0  0  0  0  0
  2  1  1  0
  3  1  2  0
  4  3  1  0
  5  2  2  0
  6  1  1  0
  7  2  1  0
  8  6  2  0
  9  4  2  0
 10  7  2  0
 11  4  1  0
 12  6  1  0
 13  7  1  0
 14 11  1  0
 15 11  1  0
  8  5  1  0
 10  9  1  0
M  END
>  <ID>  (2179) 


>  <MOLENAME>  (2179) 
GUAIAZULENE

>  <therap>  (2179) 
antioxidant, inhibits lipid peroxidation inhibitor, antiinflammatory, hepatoprotectant; LD50(rat) 1550 mg/kg po 

>  <ref>  (2179) 
Coll Czech Chem Comm 16:168, 626 (1951); Ann Pharm Fr 10:412 (1952); Arzneim-Forsch 3:253 (1953); Experientia 37:680 (1981); Arch Pharm, 330:7 (1997)

>  <cas#>  (2179) 
489-84-9

>  <source>  (2179) 
synthetic

>  <status>  (2179) 
experimental

>  <tradename>  (2179) 
nan

>  <SMILES>  (2179) 
Cc1ccc(C(C)C)cc2c(C)ccc1-2

>  <standardized_failed>  (2179) 
False

$$$$

     RDKit          2D

 26 28  0  0  0  0  0  0  0  0999 V2000
    4.0917   -1.3917    0.0000 C   0  0  0  0  0  0  0  0  0  0  0  0
    4.1000   -2.2250    0.0000 C   0  0  0  0  0  0  0  0  0  0  0  0
    3.3792   -0.9875    0.0000 C   0  0  0  0  0  0  0  0  0  0  0  0
    2.6667   -1.4042    0.0000 C   0  0  0  0  0  0  0  0  0  0  0  0
    3.3875   -2.6417    0.0000 O   0  0  0  0  0  0  0  0  0  0  0  0
    2.6667   -2.2292    0.0000 C   0  0  0  0  0  0  0  0  0  0  0  0
    1.9542   -0.9917    0.0000 C   0  0  0  0  0  0  0  0  0  0  0  0
    4.8125   -2.6292    0.0000 C   0  0  0  0  0  0  0  0  0  0  0  0
    1.9542   -2.6417    0.0000 C   0  0  0  0  0  0  0  0  0  0  0  0
    1.2417   -1.4042    0.0000 C   0  0  0  0  0  0  0  0  0  0  0  0
    4.8167   -3.4542    0.0000 C   0  0  0  0  0  0  0  0  0  0  0  0
    5.5292   -3.8667    0.0000 C   0  0  0  0  0  0  0  0  0  0  0  0
    3.3750   -0.1542    0.0000 O   0  0  0  0  0  0  0  0  0  0  0  0
    1.2417   -2.2292    0.0000 C   0  0  0  0  0  0  0  0  0  0  0  0
    6.2417   -3.4500    0.0000 C   0  0  0  0  0  0  0  0  0  0  0  0
    5.5167   -2.2167    0.0000 C   0  0  0  0  0  0  0  0  0  0  0  0
    4.8042   -0.9792    0.0000 O   0  0  0  0  0  0  0  0  0  0  0  0
    6.2375   -2.6167    0.0000 C   0  0  0  0  0  0  0  0  0  0  0  0
    1.9500   -0.1667    0.0000 O   0  0  0  0  0  0  0  0  0  0  0  0
    5.5292   -4.6917    0.0000 O   0  0  0  0  0  0  0  0  0  0  0  0
    0.5250   -2.6417    0.0000 O   0  0  0  0  0  0  0  0  0  0  0  0
    6.9625   -3.8625    0.0000 O   0  0  0  0  0  0  0  0  0  0  0  0
    1.2375    0.2458    0.0000 C   0  0  0  0  0  0  0  0  0  0  0  0
    4.8167   -5.1042    0.0000 C   0  0  0  0  0  0  0  0  0  0  0  0
    6.9667   -4.6875    0.0000 C   0  0  0  0  0  0  0  0  0  0  0  0
   -0.1875   -2.2292    0.0000 C   0  0  0  0  0  0  0  0  0  0  0  0
  2  1  2  0
  3  1  1  0
  4  3  1  0
  5  2  1  0
  6  4  2  0
  7  4  1  0
  8  2  1  0
  9  6  1  0
 10  7  2  0
 11  8  2  0
 12 11  1  0
 13  3  2  0
 14 10  1  0
 15 18  1  0
 16  8  1  0
 17  1  1  0
 18 16  2  0
 19  7  1  0
 20 12  1  0
 21 14  1  0
 22 15  1  0
 23 19  1  0
 24 20  1  0
 25 22  1  0
 26 21  1  0
  5  6  1  0
 14  9  2  0
 15 12  2  0
M  END
>  <ID>  (2180) 


>  <MOLENAME>  (2180) 
QUERCETIN 5.7.3'.4'-TETRAMETHYL ETHER

>  <therap>  (2180) 
nan

>  <ref>  (2180) 
nan

>  <cas#>  (2180) 
1244-78-6

>  <source>  (2180) 
Sterculia foetida

>  <status>  (2180) 
undetermined activity

>  <tradename>  (2180) 
nan

>  <SMILES>  (2180) 
COc1cc2c(c(OC)c1)c(=O)c(O)c(-c1cc(OC)c(OC)cc1)o2

>  <standardized_failed>  (2180) 
False

$$$$

     RDKit          2D

 18 19  0  0  0  0  0  0  0  0999 V2000
    1.7792   -0.7500    0.0000 C   0  0  0  0  0  0  0  0  0  0  0  0
    2.5292   -0.7500    0.0000 C   0  0  0  0  0  0  0  0  0  0  0  0
    1.4042   -0.1042    0.0000 C   0  0  0  0  0  0  0  0  0  0  0  0
    1.4042   -1.4000    0.0000 C   0  0  0  0  0  0  0  0  0  0  0  0
    0.6542   -0.1042    0.0000 C   0  0  0  0  0  0  0  0  0  0  0  0
    0.6542   -1.4000    0.0000 C   0  0  0  0  0  0  0  0  0  0  0  0
    0.2792   -0.7500    0.0000 C   0  0  0  0  0  0  0  0  0  0  0  0
    2.9042   -0.0917    0.0000 O   0  0  0  0  0  0  0  0  0  0  0  0
    2.9042   -1.3917    0.0000 C   0  0  0  0  0  0  0  0  0  0  0  0
    1.7917    0.5500    0.0000 O   0  0  0  0  0  0  0  0  0  0  0  0
    0.2792   -2.0542    0.0000 O   0  0  0  0  0  0  0  0  0  0  0  0
   -0.4708   -0.7500    0.0000 O   0  0  0  0  0  0  0  0  0  0  0  0
    3.6542   -1.3917    0.0000 C   0  0  0  0  0  0  0  0  0  0  0  0
    2.5375   -2.0417    0.0000 C   0  0  0  0  0  0  0  0  0  0  0  0
   -0.8458   -0.1042    0.0000 C   0  0  0  0  0  0  0  0  0  0  0  0
    2.9042   -2.6917    0.0000 C   0  0  0  0  0  0  0  0  0  0  0  0
    4.0292   -2.0417    0.0000 C   0  0  0  0  0  0  0  0  0  0  0  0
    3.6542   -2.6917    0.0000 C   0  0  0  0  0  0  0  0  0  0  0  0
  2  1  1  0
  3  1  2  0
  4  1  1  0
  5  3  1  0
  6  4  2  0
  7  6  1  0
  8  2  2  0
  9  2  1  0
 10  3  1  0
 11  6  1  0
 12  7  1  0
 13  9  2  0
 14  9  1  0
 15 12  1  0
 16 14  2  0
 17 13  1  0
 18 16  1  0
  5  7  2  0
 18 17  2  0
M  END
>  <ID>  (2181) 


>  <MOLENAME>  (2181) 
CEAROIN

>  <therap>  (2181) 
nan

>  <ref>  (2181) 
Phytochemistry 14: 1452, 2287 (1975)

>  <cas#>  (2181) 
52811-37-7

>  <source>  (2181) 
Dalbergia spp

>  <status>  (2181) 
undetermined activity

>  <tradename>  (2181) 
nan

>  <SMILES>  (2181) 
COc1cc(O)c(C(=O)c2ccccc2)cc1O

>  <standardized_failed>  (2181) 
False

$$$$

     RDKit          2D

 27 29  0  0  0  0  0  0  0  0999 V2000
    6.0292   -1.2917    0.0000 C   0  0  0  0  0  0  0  0  0  0  0  0
    5.3167   -1.6958    0.0000 C   0  0  0  0  0  0  0  0  0  0  0  0
    6.0000   -4.5708    0.0000 C   0  0  0  0  0  0  0  0  0  0  0  0
    6.0167   -2.9292    0.0000 C   0  0  0  0  0  0  0  0  0  0  0  0
    6.7083   -4.9917    0.0000 C   0  0  0  0  0  0  0  0  0  0  0  0
    6.7000   -5.8208    0.0000 C   0  0  0  0  0  0  0  0  0  0  0  0
    4.5417   -1.4375    0.0000 C   0  0  0  0  0  0  0  0  0  0  0  0
    5.2792   -4.9792    0.0000 O   0  0  0  0  0  0  0  0  0  0  0  0
    5.3083   -2.5125    0.0000 C   0  0  0  0  0  0  0  0  0  0  0  0
    6.7375   -1.7000    0.0000 C   0  0  0  0  0  0  0  0  0  0  0  0
    6.0083   -3.7542    0.0000 O   0  0  0  0  0  0  0  0  0  0  0  0
    5.9833   -6.2250    0.0000 C   0  0  0  0  0  0  0  0  0  0  0  0
    5.2708   -5.8042    0.0000 C   0  0  0  0  0  0  0  0  0  0  0  0
    6.7292   -2.5250    0.0000 O   0  0  0  0  0  0  0  0  0  0  0  0
    6.0333   -0.4667    0.0000 C   0  0  0  0  0  0  0  0  0  0  0  0
    4.5333   -2.7583    0.0000 C   0  0  0  0  0  0  0  0  0  0  0  0
    4.0583   -2.0958    0.0000 C   0  0  0  0  0  0  0  0  0  0  0  0
    4.2917   -0.6542    0.0000 O   0  0  0  0  0  0  0  0  0  0  0  0
    5.3208   -0.0500    0.0000 O   0  0  0  0  0  0  0  0  0  0  0  0
    7.4292   -4.5875    0.0000 O   0  0  0  0  0  0  0  0  0  0  0  0
    7.4083   -6.2417    0.0000 O   0  0  0  0  0  0  0  0  0  0  0  0
    5.9750   -7.0458    0.0000 O   0  0  0  0  0  0  0  0  0  0  0  0
    6.7500   -0.0542    0.0000 O   0  0  0  0  0  0  0  0  0  0  0  0
    4.5542   -6.2083    0.0000 C   0  0  0  0  0  0  0  0  0  0  0  0
    4.2750   -3.5417    0.0000 C   0  0  0  0  0  0  0  0  0  0  0  0
    4.6917   -7.0208    0.0000 O   0  0  0  0  0  0  0  0  0  0  0  0
    7.4625   -0.4708    0.0000 C   0  0  0  0  0  0  0  0  0  0  0  0
  2  1  1  0
  3 11  1  1
  4 14  1  0
  5  3  1  0
  6  5  1  0
  7  2  1  0
  8  3  1  0
  9  2  1  6
 10  1  2  0
  4 11  1  1
 12  6  1  0
 13  8  1  0
 14 10  1  0
 15  1  1  0
  9 16  1  0
 17  7  1  0
 18  7  2  0
 19 15  2  0
  5 20  1  6
  6 21  1  1
 12 22  1  6
 23 15  1  0
 13 24  1  1
 16 25  1  1
 26 24  1  0
 27 23  1  0
  9  4  1  0
 16 17  1  0
 13 12  1  0
M  END
>  <ID>  (2182) 


>  <MOLENAME>  (2182) 
VERBENALIN

>  <therap>  (2182) 
cell growth inhibitor, coagulant 

>  <ref>  (2182) 
Tetrahedron 18:1049 (1962); J Chem Soc (C) 1967:2234

>  <cas#>  (2182) 
548-37-8

>  <source>  (2182) 
Verbena spp, Penstemon nitidus, Cornus florida

>  <status>  (2182) 
experimental

>  <tradename>  (2182) 
nan

>  <SMILES>  (2182) 
COC(=O)C1=CO[C@@H](O[C@@H]2O[C@H](CO)[C@@H](O)[C@H](O)[C@H]2O)[C@H]2C1C(=O)C[C@@H]2C

>  <standardized_failed>  (2182) 
False

$$$$

     RDKit          2D

 29 33  0  0  0  0  0  0  0  0999 V2000
    6.5167   -3.0417    0.0000 C   0  0  0  0  0  0  0  0  0  0  0  0
    5.8042   -4.2792    0.0000 C   0  0  0  0  0  0  0  0  0  0  0  0
    5.0917   -3.8667    0.0000 C   0  0  0  0  0  0  0  0  0  0  0  0
    6.5167   -3.8667    0.0000 C   0  0  0  0  0  0  0  0  0  0  0  0
    7.2292   -2.6292    0.0000 C   0  0  0  0  0  0  0  0  0  0  0  0
    4.3792   -4.2792    0.0000 C   0  0  0  0  0  0  0  0  0  0  0  0
    5.8042   -2.6292    0.0000 O   0  0  0  0  0  0  0  0  0  0  0  0
    5.0917   -3.0417    0.0000 C   0  0  0  0  0  0  0  0  0  0  0  0
    3.6625   -3.8667    0.0000 C   0  0  0  0  0  0  0  0  0  0  0  0
    8.5667   -2.4792    0.0000 O   0  0  0  0  0  0  0  0  0  0  0  0
    7.9500   -3.0417    0.0000 C   0  0  0  0  0  0  0  0  0  0  0  0
    7.4042   -1.8167    0.0000 C   0  0  0  0  0  0  0  0  0  0  0  0
    4.3792   -5.1042    0.0000 C   0  0  0  0  0  0  0  0  0  0  0  0
    8.2250   -1.7375    0.0000 C   0  0  0  0  0  0  0  0  0  0  0  0
    3.6625   -3.0417    0.0000 O   0  0  0  0  0  0  0  0  0  0  0  0
    2.9417   -4.2792    0.0000 C   0  0  0  0  0  0  0  0  0  0  0  0
    7.2292   -4.2792    0.0000 C   0  0  0  0  0  0  0  0  0  0  0  0
    3.6667   -5.5167    0.0000 C   0  0  0  0  0  0  0  0  0  0  0  0
    2.9417   -5.1042    0.0000 C   0  0  0  0  0  0  0  0  0  0  0  0
    4.3792   -2.6292    0.0000 C   0  0  0  0  0  0  0  0  0  0  0  0
    5.8042   -5.1042    0.0000 O   0  0  0  0  0  0  0  0  0  0  0  0
    7.9500   -3.8667    0.0000 C   0  0  0  0  0  0  0  0  0  0  0  0
    8.6375   -1.0042    0.0000 C   0  0  0  0  0  0  0  0  0  0  0  0
    3.6750   -6.3417    0.0000 O   0  0  0  0  0  0  0  0  0  0  0  0
    2.2167   -5.5250    0.0000 O   0  0  0  0  0  0  0  0  0  0  0  0
    9.4667   -0.9917    0.0000 C   0  0  0  0  0  0  0  0  0  0  0  0
    8.2167   -0.3000    0.0000 C   0  0  0  0  0  0  0  0  0  0  0  0
    4.3917   -6.7542    0.0000 C   0  0  0  0  0  0  0  0  0  0  0  0
    1.5000   -5.1042    0.0000 C   0  0  0  0  0  0  0  0  0  0  0  0
  2  4  1  0
  3  8  1  0
  4  1  2  0
  5  1  1  0
  6  3  1  0
  7  1  1  0
  8  7  1  0
  9 15  1  0
 10 11  1  0
 11  5  2  0
 12  5  1  0
 13  6  2  0
 14 12  1  0
 15 20  1  0
 16  9  2  0
 17  4  1  0
 18 13  1  0
 19 16  1  0
  8 20  1  1
 21  2  2  0
 22 11  1  0
 23 14  1  0
 24 18  1  0
 25 19  1  0
 26 23  1  0
 27 23  1  0
 28 24  1  0
 29 25  1  0
  3  2  1  1
 10 14  1  0
 17 22  2  0
  9  6  1  0
 19 18  2  0
M  END
>  <ID>  (2183) 


>  <MOLENAME>  (2183) 
DIHYDROROTENONE

>  <therap>  (2183) 
nan

>  <ref>  (2183) 
Chem Rev 12:181 (1933)

>  <cas#>  (2183) 
nan

>  <source>  (2183) 
derivative; mp 209-211 C

>  <status>  (2183) 
undetermined activity

>  <tradename>  (2183) 
nan

>  <SMILES>  (2183) 
COc1c(OC)cc2c(c1)OC[C@H]1Oc3c(ccc4c3CC(C(C)C)O4)C(=O)[C@@H]21

>  <standardized_failed>  (2183) 
False

$$$$

     RDKit          2D

 12 12  0  0  0  0  0  0  0  0999 V2000
    3.7292   -1.6042    0.0000 C   0  0  0  0  0  0  0  0  0  0  0  0
    4.4417   -1.2000    0.0000 C   0  0  0  0  0  0  0  0  0  0  0  0
    3.0167   -1.2000    0.0000 C   0  0  0  0  0  0  0  0  0  0  0  0
    3.0167   -0.3750    0.0000 C   0  0  0  0  0  0  0  0  0  0  0  0
    4.4417   -0.3750    0.0000 C   0  0  0  0  0  0  0  0  0  0  0  0
    3.7292    0.0458    0.0000 C   0  0  0  0  0  0  0  0  0  0  0  0
    2.3042   -1.6125    0.0000 O   0  0  0  0  0  0  0  0  0  0  0  0
    5.1542    0.0375    0.0000 O   0  0  0  0  0  0  0  0  0  0  0  0
    3.7292   -2.4292    0.0000 C   0  0  0  0  0  0  0  0  0  0  0  0
    3.7292    0.8708    0.0000 C   0  0  0  0  0  0  0  0  0  0  0  0
    3.0167   -2.8417    0.0000 C   0  0  0  0  0  0  0  0  0  0  0  0
    4.4417   -2.8417    0.0000 C   0  0  0  0  0  0  0  0  0  0  0  0
  2  1  2  0
  3  1  1  0
  4  3  1  0
  5  2  1  0
  6  4  2  0
  7  3  2  0
  8  5  2  0
  9  1  1  0
 10  6  1  0
 11  9  1  0
 12  9  1  0
  6  5  1  0
M  END
>  <ID>  (2184) 


>  <MOLENAME>  (2184) 
THYMOQUINONE

>  <therap>  (2184) 
nan

>  <ref>  (2184) 
Planta Med 11: 465 (1963)

>  <cas#>  (2184) 
nan

>  <source>  (2184) 
Callitris, Monarda spp, Juniperus cedrus, Nigella sativa

>  <status>  (2184) 
undetermined activity

>  <tradename>  (2184) 
nan

>  <SMILES>  (2184) 
CC1=CC(=O)C(C(C)C)=CC1=O

>  <standardized_failed>  (2184) 
False

$$$$

     RDKit          2D

 11 11  0  0  0  0  0  0  0  0999 V2000
    4.5167   -5.5000    0.0000 C   0  0  0  0  0  0  0  0  0  0  0  0
    4.5167   -6.3250    0.0000 C   0  0  0  0  0  0  0  0  0  0  0  0
    5.2292   -2.6042    0.0000 C   0  0  0  0  0  0  0  0  0  0  0  0
    5.2292   -4.2542    0.0000 C   0  0  0  0  0  0  0  0  0  0  0  0
    5.9417   -3.0167    0.0000 C   0  0  0  0  0  0  0  0  0  0  0  0
    4.5167   -3.0250    0.0000 C   0  0  0  0  0  0  0  0  0  0  0  0
    4.5167   -3.8500    0.0000 C   0  0  0  0  0  0  0  0  0  0  0  0
    5.9417   -3.8500    0.0000 C   0  0  0  0  0  0  0  0  0  0  0  0
    5.2250   -1.7792    0.0000 O   0  0  0  0  0  0  0  0  0  0  0  0
    5.2292   -5.0875    0.0000 C   0  0  0  0  0  0  0  0  0  0  0  0
    5.9417   -1.3667    0.0000 C   0  0  0  0  0  0  0  0  0  0  0  0
  2  1  2  0
  3  5  2  0
  4 10  1  0
  5  8  1  0
  6  7  2  0
  7  4  1  0
  8  4  2  0
  9  3  1  0
 10  1  1  0
 11  9  1  0
  3  6  1  0
M  END
>  <ID>  (2185) 


>  <MOLENAME>  (2185) 
ESTRAGOLE

>  <therap>  (2185) 
insect atttractant, skin irritant, carcinogen

>  <ref>  (2185) 
JACS 55:1556 (1933); Food Chem Toxicol 28:537 (1990)

>  <cas#>  (2185) 
140-67-0

>  <source>  (2185) 
numerous plant essential oils

>  <status>  (2185) 
experimental

>  <tradename>  (2185) 
nan

>  <SMILES>  (2185) 
C=CCc1ccc(OC)cc1

>  <standardized_failed>  (2185) 
False

$$$$

     RDKit          2D

 34 38  0  0  0  0  0  0  0  0999 V2000
    6.5167   -4.1500    0.0000 C   0  0  0  0  0  0  0  0  0  0  0  0
    7.2250   -5.3792    0.0000 C   0  0  0  0  0  0  0  0  0  0  0  0
    7.2292   -4.5625    0.0000 C   0  0  0  0  0  0  0  0  0  0  0  0
    6.2917   -5.0292    0.0000 C   0  0  0  0  0  0  0  0  0  0  0  0
    6.5250   -5.8667    0.0000 O   0  0  0  0  0  0  0  0  0  0  0  0
    4.9750   -4.5625    0.0000 C   0  0  0  0  0  0  0  0  0  0  0  0
    4.9750   -5.3875    0.0000 C   0  0  0  0  0  0  0  0  0  0  0  0
    5.5875   -4.1500    0.0000 O   0  0  0  0  0  0  0  0  0  0  0  0
    4.2542   -5.8042    0.0000 C   0  0  0  0  0  0  0  0  0  0  0  0
    4.2542   -4.1500    0.0000 O   0  0  0  0  0  0  0  0  0  0  0  0
    3.5375   -5.3875    0.0000 C   0  0  0  0  0  0  0  0  0  0  0  0
    7.9292   -5.7917    0.0000 C   0  0  0  0  0  0  0  0  0  0  0  0
    7.7750   -5.0250    0.0000 O   0  0  0  0  0  0  0  0  0  0  0  0
    3.5375   -4.5625    0.0000 C   0  0  0  0  0  0  0  0  0  0  0  0
    8.6500   -5.3917    0.0000 C   0  0  0  0  0  0  0  0  0  0  0  0
    6.5125   -3.3250    0.0000 C   0  0  0  0  0  0  0  0  0  0  0  0
    7.2167   -2.0792    0.0000 C   0  0  0  0  0  0  0  0  0  0  0  0
    7.9375   -4.1500    0.0000 C   0  0  0  0  0  0  0  0  0  0  0  0
    7.2167   -2.9042    0.0000 O   0  0  0  0  0  0  0  0  0  0  0  0
    7.2042   -6.3417    0.0000 O   0  0  0  0  0  0  0  0  0  0  0  0
    7.8375   -1.7792    0.0000 O   0  0  0  0  0  0  0  0  0  0  0  0
    6.5042   -1.6750    0.0000 C   0  0  0  0  0  0  0  0  0  0  0  0
    8.6500   -4.5667    0.0000 C   0  0  0  0  0  0  0  0  0  0  0  0
    5.6917   -5.8042    0.0000 O   0  0  0  0  0  0  0  0  0  0  0  0
    4.2542   -6.6292    0.0000 O   0  0  0  0  0  0  0  0  0  0  0  0
    2.8250   -5.8042    0.0000 O   0  0  0  0  0  0  0  0  0  0  0  0
    2.8250   -4.1500    0.0000 C   0  0  0  0  0  0  0  0  0  0  0  0
    9.3625   -5.8042    0.0000 C   0  0  0  0  0  0  0  0  0  0  0  0
    2.1917   -4.6792    0.0000 O   0  0  0  0  0  0  0  0  0  0  0  0
    5.7917   -2.0875    0.0000 C   0  0  0  0  0  0  0  0  0  0  0  0
    6.5000   -0.8417    0.0000 C   0  0  0  0  0  0  0  0  0  0  0  0
    5.7792   -0.4375    0.0000 C   0  0  0  0  0  0  0  0  0  0  0  0
    5.0792   -1.6792    0.0000 C   0  0  0  0  0  0  0  0  0  0  0  0
    5.0667   -0.8542    0.0000 C   0  0  0  0  0  0  0  0  0  0  0  0
  2  3  1  0
  3  1  1  0
  4  1  1  0
  5  4  1  0
  6  8  1  1
  7  6  1  0
  1  8  1  0
  9  7  1  0
 10  6  1  0
 11 14  1  0
 12  2  1  0
 13  4  1  0
 14 10  1  0
 15 13  1  0
  1 16  1  1
 17 19  1  0
  3 18  1  1
 19 16  1  0
  2 20  1  6
 21 17  2  0
 22 17  1  0
 23 18  1  0
  7 24  1  6
  9 25  1  1
 11 26  1  6
 14 27  1  1
 15 28  1  6
 29 27  1  0
 30 22  2  0
 31 22  1  0
 32 31  2  0
 33 30  1  0
 34 32  1  0
  2  5  1  0
 12 15  1  0
 15 23  1  0
  9 11  1  0
 33 34  2  0
M  END
>  <ID>  (2186) 


>  <MOLENAME>  (2186) 
PEONIFLORIN

>  <therap>  (2186) 
antiinflammatory, antispasmodic, antihypertensive, antidiuretic 

>  <ref>  (2186) 
Tetrahedron 25:1825 (1969)

>  <cas#>  (2186) 
23180-57-6

>  <source>  (2186) 
Peonia spp

>  <status>  (2186) 
experimental

>  <tradename>  (2186) 
nan

>  <SMILES>  (2186) 
C[C@@]12CC[C@@H]3[C@@](COC(=O)c4ccccc4)(O[C@@H]4O[C@H](CO)[C@@H](O)[C@H](O)[C@H]4O)C(O1)O[C@]3(O)C2

>  <standardized_failed>  (2186) 
False

$$$$

     RDKit          2D

 22 25  0  0  0  0  0  0  0  0999 V2000
    4.7500   -2.8000    0.0000 C   0  0  0  0  0  0  0  0  0  0  0  0
    4.7500   -1.9667    0.0000 C   0  0  0  0  0  0  0  0  0  0  0  0
    4.0292   -1.5542    0.0000 C   0  0  0  0  0  0  0  0  0  0  0  0
    3.3167   -2.8000    0.0000 C   0  0  0  0  0  0  0  0  0  0  0  0
    3.3167   -1.9667    0.0000 C   0  0  0  0  0  0  0  0  0  0  0  0
    4.0292   -3.2125    0.0000 C   0  0  0  0  0  0  0  0  0  0  0  0
    2.6042   -3.2125    0.0000 C   0  0  0  0  0  0  0  0  0  0  0  0
    5.5292   -3.0542    0.0000 O   0  0  0  0  0  0  0  0  0  0  0  0
    2.6042   -4.0417    0.0000 C   0  0  0  0  0  0  0  0  0  0  0  0
    5.5292   -1.7167    0.0000 C   0  0  0  0  0  0  0  0  0  0  0  0
    6.0167   -2.3875    0.0000 C   0  0  0  0  0  0  0  0  0  0  0  0
    4.0292   -4.0417    0.0000 C   0  0  0  0  0  0  0  0  0  0  0  0
    3.3167   -4.4542    0.0000 C   0  0  0  0  0  0  0  0  0  0  0  0
    1.8917   -4.4542    0.0000 C   0  0  0  0  0  0  0  0  0  0  0  0
    4.0250   -0.7292    0.0000 O   0  0  0  0  0  0  0  0  0  0  0  0
    2.6042   -1.5542    0.0000 O   0  0  0  0  0  0  0  0  0  0  0  0
    1.8917   -2.8000    0.0000 C   0  0  0  0  0  0  0  0  0  0  0  0
    1.1750   -4.0417    0.0000 C   0  0  0  0  0  0  0  0  0  0  0  0
    5.7875   -0.9292    0.0000 C   0  0  0  0  0  0  0  0  0  0  0  0
    1.1750   -3.2125    0.0000 C   0  0  0  0  0  0  0  0  0  0  0  0
    1.3667   -4.9917    0.0000 C   0  0  0  0  0  0  0  0  0  0  0  0
    2.4750   -5.0375    0.0000 C   0  0  0  0  0  0  0  0  0  0  0  0
  2  1  2  0
  3  2  1  0
  4  6  2  0
  5  4  1  0
  6  1  1  0
  7  4  1  0
  8  1  1  0
  9 13  1  0
 10  2  1  0
 11  8  1  0
 12  6  1  0
 13 12  2  0
 14  9  1  0
 15  3  2  0
 16  5  2  0
 17  7  1  0
 18 14  1  0
 19 10  1  0
 20 17  1  0
 21 14  1  0
 22 14  1  0
 10 11  2  0
  5  3  1  0
  9  7  2  0
 18 20  1  0
M  END
>  <ID>  (2187) 


>  <MOLENAME>  (2187) 
TANSHINONE IIA

>  <therap>  (2187) 
antineoplastic, bone resorption inhibitor, antiproliferative, apoptosis inducer

>  <ref>  (2187) 
Chem Pharm Bull 10:112 (1962); Phytochemistry 24:815 (1985); Biochem Pharmacol 67:1647 (2004); World J Gastroenter 10:2024 (2004); Exp Mol Med 38:256 (2006)

>  <cas#>  (2187) 
568-72-9

>  <source>  (2187) 
Salvia miltiorrhiza

>  <status>  (2187) 
experimental

>  <tradename>  (2187) 
nan

>  <SMILES>  (2187) 
Cc1coc2c1C(=O)C(=O)c1c-2ccc2c1CCCC2(C)C

>  <standardized_failed>  (2187) 
False

$$$$

     RDKit          2D

  6  3  0  0  0  0  0  0  0  0999 V2000
    2.2042   -0.4167    0.0000 N   0  0  0  0  0  0  0  0  0  0  0  0
    3.0292   -0.4167    0.0000 N   0  0  0  0  0  0  0  0  0  0  0  0
    1.3042    0.0958    0.0000 Cl  0  0  0  0  0  0  0  0  0  0  0  0
    3.9917   -0.9042    0.0000 Cl  0  0  0  0  0  0  0  0  0  0  0  0
    1.8000   -1.1292    0.0000 C   0  0  0  0  0  0  0  0  0  0  0  0
    3.4375    0.2958    0.0000 C   0  0  0  0  0  0  0  0  0  0  0  0
  2  1  1  0
  5  1  1  0
  6  2  1  0
M  END
>  <ID>  (2188) 


>  <MOLENAME>  (2188) 
1.2-DIMETHYLHYDRAZINE HYDROCHLORIDE

>  <therap>  (2188) 
antineoplastic

>  <ref>  (2188) 
nan

>  <cas#>  (2188) 
306-37-6

>  <source>  (2188) 
synthetic

>  <status>  (2188) 
experimental

>  <tradename>  (2188) 
nan

>  <SMILES>  (2188) 
CNNC

>  <standardized_failed>  (2188) 
False

$$$$

     RDKit          2D

 33 36  0  0  0  0  0  0  0  0999 V2000
    4.4583   -3.1417    0.0000 C   0  0  0  0  0  0  0  0  0  0  0  0
    3.0208   -3.9500    0.0000 C   0  0  0  0  0  0  0  0  0  0  0  0
    2.3083   -4.3625    0.0000 C   0  0  0  0  0  0  0  0  0  0  0  0
    4.4500   -3.9667    0.0000 C   0  0  0  0  0  0  0  0  0  0  0  0
    3.7292   -4.3708    0.0000 C   0  0  0  0  0  0  0  0  0  0  0  0
    3.7500   -2.7208    0.0000 C   0  0  0  0  0  0  0  0  0  0  0  0
    2.3042   -5.1875    0.0000 C   0  0  0  0  0  0  0  0  0  0  0  0
    3.0250   -3.1250    0.0000 C   0  0  0  0  0  0  0  0  0  0  0  0
    3.7333   -5.1917    0.0000 C   0  0  0  0  0  0  0  0  0  0  0  0
    5.2417   -2.8958    0.0000 C   0  0  0  0  0  0  0  0  0  0  0  0
    3.0167   -5.6000    0.0000 C   0  0  0  0  0  0  0  0  0  0  0  0
    5.2292   -4.2250    0.0000 C   0  0  0  0  0  0  0  0  0  0  0  0
    1.5958   -3.9417    0.0000 C   0  0  0  0  0  0  0  0  0  0  0  0
    5.7167   -3.5667    0.0000 C   0  0  0  0  0  0  0  0  0  0  0  0
    7.3750   -1.6417    0.0000 C   0  0  0  0  0  0  0  0  0  0  0  0
    8.8167   -3.2792    0.0000 C   0  0  0  0  0  0  0  0  0  0  0  0
    1.5958   -5.5917    0.0000 C   0  0  0  0  0  0  0  0  0  0  0  0
    8.0917   -2.0458    0.0000 N   0  0  0  0  0  0  0  0  0  0  0  0
    7.3708   -0.8167    0.0000 O   0  0  0  0  0  0  0  0  0  0  0  0
    9.5292   -2.8625    0.0000 O   0  0  0  0  0  0  0  0  0  0  0  0
    5.2375   -2.0667    0.0000 C   0  0  0  0  0  0  0  0  0  0  0  0
    5.9458   -1.6500    0.0000 C   0  0  0  0  0  0  0  0  0  0  0  0
    8.1000   -2.8708    0.0000 C   0  0  0  0  0  0  0  0  0  0  0  0
    3.7583   -1.8958    0.0000 O   0  0  0  0  0  0  0  0  0  0  0  0
    4.4458   -5.6083    0.0000 O   0  0  0  0  0  0  0  0  0  0  0  0
    6.6625   -2.0583    0.0000 C   0  0  0  0  0  0  0  0  0  0  0  0
    4.4542   -2.3167    0.0000 C   0  0  0  0  0  0  0  0  0  0  0  0
    0.8875   -4.3625    0.0000 C   0  0  0  0  0  0  0  0  0  0  0  0
    0.8875   -5.1875    0.0000 C   0  0  0  0  0  0  0  0  0  0  0  0
    2.3042   -3.5375    0.0000 C   0  0  0  0  0  0  0  0  0  0  0  0
    8.8250   -4.1042    0.0000 O   0  0  0  0  0  0  0  0  0  0  0  0
    0.1708   -5.6000    0.0000 O   0  0  0  0  0  0  0  0  0  0  0  0
    4.5167   -1.6625    0.0000 C   0  0  0  0  0  0  0  0  0  0  0  0
  2  5  1  0
  3  2  1  0
  4  1  1  0
  5  4  1  0
  6  1  1  0
  7  3  1  0
  8  6  1  0
  9  5  1  0
 10  1  1  0
 11  9  1  0
 12  4  1  0
 13  3  1  0
 10 14  1  1
 15 26  1  0
 16 23  1  0
 17  7  1  0
 18 15  1  0
 19 15  2  0
 20 16  2  0
 10 21  1  0
 22 21  1  0
 23 18  1  0
  6 24  1  6
  9 25  1  6
 26 22  1  0
  1 27  1  1
 28 13  1  0
 29 17  1  0
  3 30  1  1
 31 16  1  0
 29 32  1  6
 21 33  1  6
  8  2  1  0
 14 12  1  0
 11  7  1  0
 29 28  1  0
M  END
>  <ID>  (2189) 


>  <MOLENAME>  (2189) 
GLYCOCHOLIC ACID

>  <therap>  (2189) 
nan

>  <ref>  (2189) 
nan

>  <cas#>  (2189) 
475-31-0

>  <source>  (2189) 
mammalian bile

>  <status>  (2189) 
undetermined activity

>  <tradename>  (2189) 
nan

>  <SMILES>  (2189) 
C[C@H](CCC(=O)NCC(=O)O)[C@H]1CCC2C3C(C[C@H](O)[C@@]21C)[C@@]1(C)CC[C@@H](O)CC1C[C@H]3O

>  <standardized_failed>  (2189) 
False

$$$$

     RDKit          2D

 13 14  0  0  0  0  0  0  0  0999 V2000
   -0.7250   -1.2333    0.0000 C   0  0  0  0  0  0  0  0  0  0  0  0
   -0.7167   -2.5792    0.0000 N   0  0  0  0  0  0  0  0  0  0  0  0
   -0.2333   -1.9042    0.0000 C   0  0  0  0  0  0  0  0  0  0  0  0
   -1.5125   -1.4958    0.0000 C   0  0  0  0  0  0  0  0  0  0  0  0
   -1.5083   -2.3250    0.0000 C   0  0  0  0  0  0  0  0  0  0  0  0
   -0.4750   -0.4458    0.0000 C   0  0  0  0  0  0  0  0  0  0  0  0
    0.3333   -0.2708    0.0000 N   0  0  0  0  0  0  0  0  0  0  0  0
   -2.2292   -1.0833    0.0000 C   0  0  0  0  0  0  0  0  0  0  0  0
   -2.2292   -2.7375    0.0000 C   0  0  0  0  0  0  0  0  0  0  0  0
    0.5833    0.5167    0.0000 C   0  0  0  0  0  0  0  0  0  0  0  0
    0.8875   -0.8792    0.0000 C   0  0  0  0  0  0  0  0  0  0  0  0
   -2.9417   -1.5000    0.0000 C   0  0  0  0  0  0  0  0  0  0  0  0
   -2.9417   -2.3250    0.0000 C   0  0  0  0  0  0  0  0  0  0  0  0
  2  3  1  0
  3  1  2  0
  4  1  1  0
  5  4  2  0
  6  1  1  0
  7  6  1  0
  8  4  1  0
  9  5  1  0
 10  7  1  0
 11  7  1  0
 12  8  2  0
 13  9  2  0
  2  5  1  0
 13 12  1  0
M  END
>  <ID>  (2190) 


>  <MOLENAME>  (2190) 
GRAMINE

>  <therap>  (2190) 
nan

>  <ref>  (2190) 
J Org Chem 24:1285 (1959); Phytochemistry 33:741 (1993)

>  <cas#>  (2190) 
87-52-5

>  <source>  (2190) 
Arundo, Hordeum, Phalaris spp

>  <status>  (2190) 
experimental

>  <tradename>  (2190) 
nan

>  <SMILES>  (2190) 
CN(C)Cc1c[nH]c2c1cccc2

>  <standardized_failed>  (2190) 
False

$$$$

     RDKit          2D

 20 18  0  0  0  0  0  0  0  0999 V2000
    4.1750   -2.1042    0.0000 C   0  0  0  0  0  0  0  0  0  0  0  0
    4.8875   -2.5125    0.0000 C   0  0  0  0  0  0  0  0  0  0  0  0
    5.6000   -2.1000    0.0000 C   0  0  0  0  0  0  0  0  0  0  0  0
    3.4625   -2.5167    0.0000 C   0  0  0  0  0  0  0  0  0  0  0  0
    6.3125   -2.5042    0.0000 C   0  0  0  0  0  0  0  0  0  0  0  0
    8.4500   -2.0917    0.0000 C   0  0  0  0  0  0  0  0  0  0  0  0
    2.7500   -2.1042    0.0000 O   0  0  0  0  0  0  0  0  0  0  0  0
    3.4625   -3.3417    0.0000 O   0  0  0  0  0  0  0  0  0  0  0  0
    7.7375   -2.5042    0.0000 O   0  0  0  0  0  0  0  0  0  0  0  0
    8.4417   -1.2667    0.0000 O   0  0  0  0  0  0  0  0  0  0  0  0
    7.0250   -2.0917    0.0000 C   0  0  0  0  0  0  0  0  0  0  0  0
    4.1667   -1.2792    0.0000 O   0  0  0  0  0  0  0  0  0  0  0  0
    9.1625   -2.5000    0.0000 C   0  0  0  0  0  0  0  0  0  0  0  0
    4.8875   -3.3375    0.0000 O   0  0  0  0  0  0  0  0  0  0  0  0
    9.8750   -2.0875    0.0000 N   0  0  0  0  0  0  0  0  0  0  0  0
    5.5917   -1.2750    0.0000 O   0  0  0  0  0  0  0  0  0  0  0  0
    6.3125   -3.3292    0.0000 O   0  0  0  0  0  0  0  0  0  0  0  0
    1.2167   -1.9292    0.0000 Na  0  0  0  0  0 15  0  0  0  0  0  0
    9.8667   -1.2625    0.0000 C   0  0  0  0  0  0  0  0  0  0  0  0
   10.5792   -2.4917    0.0000 C   0  0  0  0  0  0  0  0  0  0  0  0
  2  1  1  0
  3  2  1  0
  4  1  1  0
  5  3  1  0
  6  9  1  0
  7  4  1  0
  8  4  2  0
  9 11  1  0
 10  6  2  0
 11  5  1  0
  1 12  1  6
 13  6  1  0
  2 14  1  6
 15 13  1  0
  3 16  1  6
  5 17  1  1
 19 15  1  0
 20 15  1  0
M  CHG  2   7  -1  18   1
M  END
>  <ID>  (2191) 


>  <MOLENAME>  (2191) 
PANGAMIC ACID SODIUM

>  <therap>  (2191) 
nan

>  <ref>  (2191) 
Int Rec Med 164:18 (1951); Chim Ther 7:103 (1972); Indian Drugs 20:185 (1983)

>  <cas#>  (2191) 
20858-86-0

>  <source>  (2191) 
vitamin B15

>  <status>  (2191) 
experimental

>  <tradename>  (2191) 
nan

>  <SMILES>  (2191) 
CN(C)CC(=O)OC[C@@H](O)[C@@H](O)[C@H](O)[C@@H](O)C(=O)O

>  <standardized_failed>  (2191) 
False

$$$$

     RDKit          2D

 44 48  0  0  0  0  0  0  0  0999 V2000
    2.0917    1.7583    0.0000 C   0  0  0  0  0  0  0  0  0  0  0  0
    2.0167   -1.1792    0.0000 C   0  0  0  0  0  0  0  0  0  0  0  0
   -0.0458    0.8583    0.0000 C   0  0  0  0  0  0  0  0  0  0  0  0
    2.8917   -0.2542    0.0000 C   0  0  0  0  0  0  0  0  0  0  0  0
    0.0667   -0.2542    0.0000 C   0  0  0  0  0  0  0  0  0  0  0  0
    2.8917    0.9458    0.0000 C   0  0  0  0  0  0  0  0  0  0  0  0
    0.8667    1.7583    0.0000 C   0  0  0  0  0  0  0  0  0  0  0  0
    0.8667   -1.0542    0.0000 C   0  0  0  0  0  0  0  0  0  0  0  0
    1.4667    1.3958    0.0000 N   0  0  0  0  0  0  0  0  0  0  0  0
    1.4667   -0.7042    0.0000 N   0  0  0  0  0  0  0  0  0  0  0  0
    1.9292    2.4458    0.0000 C   0  0  0  0  0  0  0  0  0  0  0  0
   -0.6708    0.5958    0.0000 C   0  0  0  0  0  0  0  0  0  0  0  0
    0.4292    0.3458    0.0000 N   0  0  0  0  0  0  0  0  0  0  0  0
    2.5292    0.3458    0.0000 N   0  0  0  0  0  0  0  0  0  0  0  0
    1.7292   -1.8042    0.0000 C   0  0  0  0  0  0  0  0  0  0  0  0
    3.5667   -0.1042    0.0000 C   0  0  0  0  0  0  0  0  0  0  0  0
    2.5542    1.5458    0.0000 C   0  0  0  0  0  0  0  0  0  0  0  0
    2.6667   -0.9417    0.0000 C   0  0  0  0  0  0  0  0  0  0  0  0
   -0.6083   -0.1042    0.0000 C   0  0  0  0  0  0  0  0  0  0  0  0
    0.1417    1.5583    0.0000 C   0  0  0  0  0  0  0  0  0  0  0  0
    0.2667   -0.7042    0.0000 C   0  0  0  0  0  0  0  0  0  0  0  0
    1.0292    2.4458    0.0000 C   0  0  0  0  0  0  0  0  0  0  0  0
    3.5667    0.7958    0.0000 C   0  0  0  0  0  0  0  0  0  0  0  0
    1.0292   -1.7542    0.0000 C   0  0  0  0  0  0  0  0  0  0  0  0
    4.0667   -0.5792    0.0000 C   0  0  0  0  0  0  0  0  0  0  0  0
    2.0667   -2.4042    0.0000 C   0  0  0  0  0  0  0  0  0  0  0  0
    3.1292   -3.0417    0.0000 C   0  0  0  0  0  0  0  0  0  0  0  0
    5.2167   -0.9042    0.0000 C   0  0  0  0  0  0  0  0  0  0  0  0
   -1.2833    0.9458    0.0000 C   0  0  0  0  0  0  0  0  0  0  0  0
    2.4292    2.9333    0.0000 C   0  0  0  0  0  0  0  0  0  0  0  0
    2.7667   -3.6417    0.0000 O   0  0  0  0  0  0  0  0  0  0  0  0
    5.8917   -0.7542    0.0000 O   0  0  0  0  0  0  0  0  0  0  0  0
    4.7292   -0.4292    0.0000 C   0  0  0  0  0  0  0  0  0  0  0  0
    2.7667   -2.4417    0.0000 C   0  0  0  0  0  0  0  0  0  0  0  0
    3.8292   -3.0042    0.0000 O   0  0  0  0  0  0  0  0  0  0  0  0
    5.0167   -1.5667    0.0000 O   0  0  0  0  0  0  0  0  0  0  0  0
   -1.1458   -0.5167    0.0000 C   0  0  0  0  0  0  0  0  0  0  0  0
    0.5292    2.9333    0.0000 C   0  0  0  0  0  0  0  0  0  0  0  0
    4.0667    1.2833    0.0000 C   0  0  0  0  0  0  0  0  0  0  0  0
    0.5917   -2.2917    0.0000 C   0  0  0  0  0  0  0  0  0  0  0  0
   -1.2708    1.6833    0.0000 O   0  0  0  0  0  0  0  0  0  0  0  0
    3.0917    2.7583    0.0000 O   0  0  0  0  0  0  0  0  0  0  0  0
    2.2542    3.5958    0.0000 C   0  0  0  0  0  0  0  0  0  0  0  0
   -1.9083    0.5958    0.0000 C   0  0  0  0  0  0  0  0  0  0  0  0
  2 18  2  0
  3 20  2  0
  4 14  1  0
  5 13  1  0
  6 17  1  0
  7  9  2  0
  8 10  2  0
  9  1  1  0
 10  2  1  0
 11  1  1  0
 12  3  1  0
 13  3  1  0
 14  6  1  0
 15  2  1  0
 16 23  1  0
 17  1  2  0
 18  4  1  0
 19 12  2  0
 20  7  1  0
 21  5  2  0
 22 11  2  0
 23  6  2  0
 24 15  2  0
 25 16  1  0
 26 15  1  0
 27 34  1  0
 28 33  1  0
 29 12  1  0
 30 11  1  0
 31 27  2  0
 32 28  2  0
 33 25  1  0
 34 26  1  0
 35 27  1  0
 36 28  1  0
 37 19  1  0
 38 22  1  0
 39 23  1  0
 40 24  1  0
 41 29  1  0
 42 30  1  0
 43 30  1  0
 44 29  1  0
  7 22  1  0
 16  4  2  0
  5 19  1  0
 21  8  1  0
 24  8  1  0
M  END
>  <ID>  (2192) 


>  <MOLENAME>  (2192) 
HAEMATOPORPHYRIN

>  <therap>  (2192) 
antidepressant, antineoplastic

>  <ref>  (2192) 
J Biol Chem 202:801 (1953); Photochem Photobiol 39:851 (1984); 55:145 (1992)

>  <cas#>  (2192) 
14459-29-1

>  <source>  (2192) 
Chlorella vulgaris; derived blood

>  <status>  (2192) 
experimental

>  <tradename>  (2192) 
nan

>  <SMILES>  (2192) 
CC1=C(CCC(=O)O)c2cc3c(CCC(=O)O)c(C)c(cc4nc(cc5[nH]c(cc1n2)c(C)c5C(C)O)C(C)=C4C(C)O)[nH]3

>  <standardized_failed>  (2192) 
False

$$$$

     RDKit          2D

 11 10  0  0  0  0  0  0  0  0999 V2000
    5.5042   -3.1792    0.0000 C   0  0  0  0  0  0  0  0  0  0  0  0
    5.5042   -2.3500    0.0000 O   0  0  0  0  0  0  0  0  0  0  0  0
    4.7792   -3.5917    0.0000 C   0  0  0  0  0  0  0  0  0  0  0  0
    7.5125   -4.2417    0.0000 Cl  0  0  0  0  0  0  0  0  0  0  0  0
    6.2167   -4.4167    0.0000 N   0  0  0  0  0  0  0  0  0  0  0  0
    6.2167   -3.5917    0.0000 C   0  0  0  0  0  0  0  0  0  0  0  0
    4.7792   -4.4167    0.0000 C   0  0  0  0  0  0  0  0  0  0  0  0
    4.0667   -3.1792    0.0000 C   0  0  0  0  0  0  0  0  0  0  0  0
    3.3542   -3.5917    0.0000 C   0  0  0  0  0  0  0  0  0  0  0  0
    4.0667   -4.8292    0.0000 C   0  0  0  0  0  0  0  0  0  0  0  0
    3.3542   -4.4167    0.0000 C   0  0  0  0  0  0  0  0  0  0  0  0
  2  1  2  0
  3  1  1  0
  5  6  1  0
  6  1  1  0
  7  3  2  0
  8  3  1  0
  9  8  2  0
 10  7  1  0
 11 10  2  0
  9 11  1  0
M  END
>  <ID>  (2193) 


>  <MOLENAME>  (2193) 
PHENACYLAMINE HYDROCHLORIDE

>  <therap>  (2193) 
nan

>  <ref>  (2193) 
Planta Med 22: 434 (1972)

>  <cas#>  (2193) 
5468-37-1, 613-89-8(base)

>  <source>  (2193) 
Castanopsis cuspidata, Vitis spp

>  <status>  (2193) 
undetermined activity

>  <tradename>  (2193) 
nan

>  <SMILES>  (2193) 
NCC(=O)c1ccccc1

>  <standardized_failed>  (2193) 
False

$$$$

     RDKit          2D

 33 36  0  0  0  0  0  0  0  0999 V2000
   -0.2625    1.0000    0.0000 C   0  0  0  0  0  0  0  0  0  0  0  0
   -1.0625    0.7958    0.0000 C   0  0  0  0  0  0  0  0  0  0  0  0
   -0.9000   -1.2542    0.0000 C   0  0  0  0  0  0  0  0  0  0  0  0
   -1.4625   -0.6542    0.0000 C   0  0  0  0  0  0  0  0  0  0  0  0
    0.8042   -0.0542    0.0000 C   0  0  0  0  0  0  0  0  0  0  0  0
    0.6042   -0.8375    0.0000 C   0  0  0  0  0  0  0  0  0  0  0  0
   -1.5333    0.1458    0.0000 C   0  0  0  0  0  0  0  0  0  0  0  0
    0.4667    0.6625    0.0000 C   0  0  0  0  0  0  0  0  0  0  0  0
   -0.0500   -1.3042    0.0000 C   0  0  0  0  0  0  0  0  0  0  0  0
   -1.1333   -2.0375    0.0000 C   0  0  0  0  0  0  0  0  0  0  0  0
   -1.6125    1.3625    0.0000 C   0  0  0  0  0  0  0  0  0  0  0  0
    1.1792   -1.4167    0.0000 C   0  0  0  0  0  0  0  0  0  0  0  0
   -0.0500    1.7833    0.0000 C   0  0  0  0  0  0  0  0  0  0  0  0
   -2.2458   -0.8667    0.0000 C   0  0  0  0  0  0  0  0  0  0  0  0
    1.5875    0.1458    0.0000 C   0  0  0  0  0  0  0  0  0  0  0  0
   -1.4125    2.1458    0.0000 C   0  0  0  0  0  0  0  0  0  0  0  0
   -2.4625   -1.6167    0.0000 C   0  0  0  0  0  0  0  0  0  0  0  0
   -1.9125   -2.2500    0.0000 C   0  0  0  0  0  0  0  0  0  0  0  0
    1.9375   -1.2042    0.0000 C   0  0  0  0  0  0  0  0  0  0  0  0
    2.1542   -0.4292    0.0000 C   0  0  0  0  0  0  0  0  0  0  0  0
   -0.6333    2.3500    0.0000 C   0  0  0  0  0  0  0  0  0  0  0  0
   -1.9833    2.7125    0.0000 O   0  0  0  0  0  0  0  0  0  0  0  0
   -0.4333    3.1708    0.0000 O   0  0  0  0  0  0  0  0  0  0  0  0
    2.9542   -0.2500    0.0000 O   0  0  0  0  0  0  0  0  0  0  0  0
    2.5042   -1.7792    0.0000 O   0  0  0  0  0  0  0  0  0  0  0  0
   -2.1208   -3.0292    0.0000 O   0  0  0  0  0  0  0  0  0  0  0  0
   -3.2833   -1.8042    0.0000 O   0  0  0  0  0  0  0  0  0  0  0  0
    0.3500    3.3958    0.0000 C   0  0  0  0  0  0  0  0  0  0  0  0
    3.2875   -1.5667    0.0000 C   0  0  0  0  0  0  0  0  0  0  0  0
   -2.7625    2.5208    0.0000 C   0  0  0  0  0  0  0  0  0  0  0  0
   -2.9125   -3.2542    0.0000 C   0  0  0  0  0  0  0  0  0  0  0  0
    3.5167   -0.8167    0.0000 C   0  0  0  0  0  0  0  0  0  0  0  0
   -3.5458   -2.5792    0.0000 C   0  0  0  0  0  0  0  0  0  0  0  0
  2  1  2  0
  3  4  2  0
  4  7  1  0
  5  8  1  0
  6  5  2  0
  7  2  1  0
  8  1  1  0
  9  6  1  0
 10  3  1  0
 11  2  1  0
 12  6  1  0
 13  1  1  0
 14  4  1  0
 15  5  1  0
 16 21  1  0
 17 14  2  0
 18 17  1  0
 19 20  1  0
 20 15  2  0
 21 13  2  0
 22 16  1  0
 23 21  1  0
 24 20  1  0
 25 19  1  0
 26 18  1  0
 27 17  1  0
 28 23  1  0
 29 25  1  0
 30 22  1  0
 31 26  1  0
 32 24  1  0
 33 27  1  0
 11 16  2  0
  9  3  1  0
 12 19  2  0
 18 10  2  0
M  END
>  <ID>  (2194) 


>  <MOLENAME>  (2194) 
CYCLOVERATRYLENE

>  <therap>  (2194) 
nan

>  <ref>  (2194) 
Tet Lett 1978: 1699; 33: 5846 (1992)

>  <cas#>  (2194) 
nan

>  <source>  (2194) 
Halopythus spp

>  <status>  (2194) 
undetermined activity

>  <tradename>  (2194) 
nan

>  <SMILES>  (2194) 
COc1cc2c(cc1OC)Cc1c(cc(OC)c(OC)c1)Cc1c(cc(OC)c(OC)c1)C2

>  <standardized_failed>  (2194) 
False

$$$$

     RDKit          2D

 24 26  0  0  0  0  0  0  0  0999 V2000
    4.6792   -2.5667    0.0000 C   0  0  0  0  0  0  0  0  0  0  0  0
    4.6792   -1.7292    0.0000 C   0  0  0  0  0  0  0  0  0  0  0  0
    5.3917   -2.9792    0.0000 C   0  0  0  0  0  0  0  0  0  0  0  0
    6.1167   -2.5667    0.0000 C   0  0  0  0  0  0  0  0  0  0  0  0
    5.4000   -1.3125    0.0000 O   0  0  0  0  0  0  0  0  0  0  0  0
    3.9667   -2.9750    0.0000 C   0  0  0  0  0  0  0  0  0  0  0  0
    3.9667   -1.3167    0.0000 C   0  0  0  0  0  0  0  0  0  0  0  0
    8.9750   -2.5792    0.0000 C   0  0  0  0  0  0  0  0  0  0  0  0
    6.1167   -1.7292    0.0000 C   0  0  0  0  0  0  0  0  0  0  0  0
    6.8292   -2.9792    0.0000 C   0  0  0  0  0  0  0  0  0  0  0  0
    8.9792   -1.7542    0.0000 C   0  0  0  0  0  0  0  0  0  0  0  0
    8.2542   -2.9875    0.0000 C   0  0  0  0  0  0  0  0  0  0  0  0
    7.5500   -2.5667    0.0000 C   0  0  0  0  0  0  0  0  0  0  0  0
    8.2542   -1.3375    0.0000 C   0  0  0  0  0  0  0  0  0  0  0  0
    3.2542   -1.7375    0.0000 C   0  0  0  0  0  0  0  0  0  0  0  0
    5.3917   -3.8042    0.0000 O   0  0  0  0  0  0  0  0  0  0  0  0
    3.2542   -2.5625    0.0000 C   0  0  0  0  0  0  0  0  0  0  0  0
    7.5417   -1.7500    0.0000 C   0  0  0  0  0  0  0  0  0  0  0  0
    9.6875   -2.9917    0.0000 O   0  0  0  0  0  0  0  0  0  0  0  0
    9.6917   -1.3417    0.0000 O   0  0  0  0  0  0  0  0  0  0  0  0
    2.5375   -1.3167    0.0000 O   0  0  0  0  0  0  0  0  0  0  0  0
    9.6792   -3.8167    0.0000 C   0  0  0  0  0  0  0  0  0  0  0  0
   10.4042   -1.7542    0.0000 C   0  0  0  0  0  0  0  0  0  0  0  0
    2.5375   -0.4917    0.0000 C   0  0  0  0  0  0  0  0  0  0  0  0
  2  1  2  0
  3  1  1  0
  4  3  1  0
  5  2  1  0
  6  1  1  0
  7  2  1  0
  8 12  2  0
  9  4  1  0
  4 10  1  1
 11 14  2  0
 12 13  1  0
 13 10  1  0
 14 18  1  0
 15 17  1  0
  3 16  1  1
 17  6  2  0
 18 13  2  0
 19  8  1  0
 20 11  1  0
 21 15  1  0
 22 19  1  0
 23 20  1  0
 24 21  1  0
 15  7  2  0
  9  5  1  0
 11  8  1  0
M  END
>  <ID>  (2195) 


>  <MOLENAME>  (2195) 
TETRAHYDROSAPPANONE A TRIMETHYL ETHER

>  <therap>  (2195) 
nan

>  <ref>  (2195) 
Chem Pharm Bull 34: 2506 (1986); 35: 3597 (1987)

>  <cas#>  (2195) 
nan

>  <source>  (2195) 
derivative Caesalpinia sappan

>  <status>  (2195) 
undetermined activity

>  <tradename>  (2195) 
nan

>  <SMILES>  (2195) 
COc1cc2c(cc1)[C@H](O)[C@H](Cc1ccc(OC)c(OC)c1)CO2

>  <standardized_failed>  (2195) 
False

$$$$

     RDKit          2D

 42 46  0  0  0  0  0  0  0  0999 V2000
    2.0792    0.2625    0.0000 C   0  0  0  0  0  0  0  0  0  0  0  0
    0.6542    0.2625    0.0000 C   0  0  0  0  0  0  0  0  0  0  0  0
    0.6542    1.0875    0.0000 C   0  0  0  0  0  0  0  0  0  0  0  0
    1.3667   -0.1500    0.0000 C   0  0  0  0  0  0  0  0  0  0  0  0
    2.0792    1.0875    0.0000 C   0  0  0  0  0  0  0  0  0  0  0  0
    1.3667    1.5000    0.0000 C   0  0  0  0  0  0  0  0  0  0  0  0
    3.5042    0.2625    0.0000 C   0  0  0  0  0  0  0  0  0  0  0  0
    3.5042    1.0875    0.0000 C   0  0  0  0  0  0  0  0  0  0  0  0
    4.2167    1.5000    0.0000 C   0  0  0  0  0  0  0  0  0  0  0  0
    2.7917   -0.1500    0.0000 C   0  0  0  0  0  0  0  0  0  0  0  0
    4.9417    1.0875    0.0000 C   0  0  0  0  0  0  0  0  0  0  0  0
    4.2167   -0.1500    0.0000 C   0  0  0  0  0  0  0  0  0  0  0  0
    6.3625   -1.3875    0.0000 C   0  0  0  0  0  0  0  0  0  0  0  0
    2.7917    1.5000    0.0000 C   0  0  0  0  0  0  0  0  0  0  0  0
    6.3625   -2.2167    0.0000 C   0  0  0  0  0  0  0  0  0  0  0  0
    4.9292   -1.3875    0.0000 C   0  0  0  0  0  0  0  0  0  0  0  0
    4.9417    0.2625    0.0000 C   0  0  0  0  0  0  0  0  0  0  0  0
    4.9292   -2.2167    0.0000 O   0  0  0  0  0  0  0  0  0  0  0  0
    5.6417   -0.9750    0.0000 C   0  0  0  0  0  0  0  0  0  0  0  0
    4.2167    2.3333    0.0000 C   0  0  0  0  0  0  0  0  0  0  0  0
    5.6417   -2.6292    0.0000 C   0  0  0  0  0  0  0  0  0  0  0  0
    4.2167   -0.9750    0.0000 O   0  0  0  0  0  0  0  0  0  0  0  0
   -0.0583   -0.1500    0.0000 C   0  0  0  0  0  0  0  0  0  0  0  0
   -0.0583    1.5000    0.0000 C   0  0  0  0  0  0  0  0  0  0  0  0
    1.3667   -0.9750    0.0000 O   0  0  0  0  0  0  0  0  0  0  0  0
    1.3667    2.3333    0.0000 O   0  0  0  0  0  0  0  0  0  0  0  0
    7.0792   -0.9667    0.0000 N   0  0  0  0  0  0  0  0  0  0  0  0
    4.9292    2.7375    0.0000 O   0  0  0  0  0  0  0  0  0  0  0  0
   -0.7833    1.0875    0.0000 C   0  0  0  0  0  0  0  0  0  0  0  0
   -0.7833    0.2625    0.0000 C   0  0  0  0  0  0  0  0  0  0  0  0
    5.2167    1.8750    0.0000 O   0  0  0  0  0  0  0  0  0  0  0  0
    2.7917   -0.9750    0.0000 O   0  0  0  0  0  0  0  0  0  0  0  0
    7.0875   -2.6292    0.0000 O   0  0  0  0  0  0  0  0  0  0  0  0
    3.5042    2.7375    0.0000 O   0  0  0  0  0  0  0  0  0  0  0  0
    5.7667    0.6875    0.0000 C   0  0  0  0  0  0  0  0  0  0  0  0
   -0.0583   -0.9750    0.0000 O   0  0  0  0  0  0  0  0  0  0  0  0
   -0.0583    2.3333    0.0000 O   0  0  0  0  0  0  0  0  0  0  0  0
    5.6292   -3.4542    0.0000 C   0  0  0  0  0  0  0  0  0  0  0  0
    7.7917   -1.3750    0.0000 C   0  0  0  0  0  0  0  0  0  0  0  0
    7.0792   -0.1417    0.0000 C   0  0  0  0  0  0  0  0  0  0  0  0
    3.5042    3.5833    0.0000 C   0  0  0  0  0  0  0  0  0  0  0  0
    6.5042    1.1875    0.0000 C   0  0  0  0  0  0  0  0  0  0  0  0
  2  4  1  0
  3  6  1  0
  4  1  1  0
  5  1  2  0
  6  5  1  0
  7 10  2  0
  8  7  1  0
  9  8  1  0
 10  1  1  0
 11 17  1  0
 12  7  1  0
 13 19  1  0
 14  5  1  0
 15 13  1  0
 16 22  1  1
 17 12  1  0
 18 16  1  0
 19 16  1  0
  9 20  1  1
 21 18  1  0
 12 22  1  6
 23  2  2  0
 24  3  2  0
 25  4  2  0
 26  6  2  0
 13 27  1  6
 28 20  2  0
 29 24  1  0
 30 23  1  0
 11 31  1  6
 32 10  1  0
 15 33  1  6
 34 20  1  0
 11 35  1  0
 36 23  1  0
 37 24  1  0
 21 38  1  6
 39 27  1  0
 40 27  1  0
 41 34  1  0
 42 35  1  0
 14  8  2  0
  3  2  1  0
 29 30  2  0
  9 11  1  0
 15 21  1  0
M  END
>  <ID>  (2196) 


>  <MOLENAME>  (2196) 
PYRROMYCIN

>  <therap>  (2196) 
antibacterial

>  <ref>  (2196) 
Tet Letters 1959: 17; Chem Ber 92: 1904 (1959)

>  <cas#>  (2196) 
668-17-7

>  <source>  (2196) 
Streptomyces spp

>  <status>  (2196) 
experimental

>  <tradename>  (2196) 
nan

>  <SMILES>  (2196) 
CC[C@@]1(O)C[C@H](O[C@H]2C[C@H](N(C)C)[C@H](O)[C@H](C)O2)c2c(O)c3c(cc2[C@H]1C(=O)OC)C(=O)c1c(O)ccc(O)c1C3=O

>  <standardized_failed>  (2196) 
False

$$$$

     RDKit          2D

 27 29  0  0  0  0  0  0  0  0999 V2000
    4.4625   -4.1292    0.0000 C   0  0  0  0  0  0  0  0  0  0  0  0
    5.0500   -4.7167    0.0000 C   0  0  0  0  0  0  0  0  0  0  0  0
    4.5542   -3.3167    0.0000 C   0  0  0  0  0  0  0  0  0  0  0  0
    7.6542   -3.4542    0.0000 C   0  0  0  0  0  0  0  0  0  0  0  0
    5.8625   -4.6292    0.0000 O   0  0  0  0  0  0  0  0  0  0  0  0
    6.3000   -3.9292    0.0000 C   0  0  0  0  0  0  0  0  0  0  0  0
    4.8375   -5.5042    0.0000 C   0  0  0  0  0  0  0  0  0  0  0  0
    3.6750   -4.3417    0.0000 C   0  0  0  0  0  0  0  0  0  0  0  0
    7.1167   -4.0792    0.0000 C   0  0  0  0  0  0  0  0  0  0  0  0
    4.0292   -5.7167    0.0000 C   0  0  0  0  0  0  0  0  0  0  0  0
    6.0250   -3.1417    0.0000 C   0  0  0  0  0  0  0  0  0  0  0  0
    5.2542   -2.8792    0.0000 O   0  0  0  0  0  0  0  0  0  0  0  0
    3.4625   -5.1542    0.0000 C   0  0  0  0  0  0  0  0  0  0  0  0
    7.3750   -2.6542    0.0000 C   0  0  0  0  0  0  0  0  0  0  0  0
    6.5625   -2.5042    0.0000 C   0  0  0  0  0  0  0  0  0  0  0  0
    8.4750   -3.6167    0.0000 C   0  0  0  0  0  0  0  0  0  0  0  0
    3.8500   -2.8792    0.0000 O   0  0  0  0  0  0  0  0  0  0  0  0
    9.0250   -3.0042    0.0000 O   0  0  0  0  0  0  0  0  0  0  0  0
    5.4167   -6.0792    0.0000 Cl  0  0  0  0  0  0  0  0  0  0  0  0
    2.6625   -5.3917    0.0000 Cl  0  0  0  0  0  0  0  0  0  0  0  0
    3.7875   -6.5167    0.0000 O   0  0  0  0  0  0  0  0  0  0  0  0
    7.9125   -2.0167    0.0000 O   0  0  0  0  0  0  0  0  0  0  0  0
    8.7500   -4.4042    0.0000 O   0  0  0  0  0  0  0  0  0  0  0  0
    3.1000   -3.7542    0.0000 C   0  0  0  0  0  0  0  0  0  0  0  0
    7.3917   -4.8667    0.0000 C   0  0  0  0  0  0  0  0  0  0  0  0
    8.7250   -2.1542    0.0000 C   0  0  0  0  0  0  0  0  0  0  0  0
    8.2000   -5.0292    0.0000 C   0  0  0  0  0  0  0  0  0  0  0  0
  2  1  2  0
  3  1  1  0
  4  9  1  0
  5  2  1  0
  6  5  1  0
  7  2  1  0
  8  1  1  0
  9  6  2  0
 10 13  1  0
 11 12  1  0
 12  3  1  0
 13  8  2  0
 14 15  1  0
 15 11  2  0
 16  4  1  0
 17  3  2  0
 18 16  2  0
 19  7  1  0
 20 13  1  0
 21 10  1  0
 22 14  1  0
 23 16  1  0
 24  8  1  0
 25  9  1  0
 26 22  1  0
 27 23  1  0
  7 10  2  0
  6 11  1  0
 14  4  2  0
M  END
>  <ID>  (2197) 


>  <MOLENAME>  (2197) 
GANGALEOIDIN

>  <therap>  (2197) 
nan

>  <ref>  (2197) 
J Chem Soc 1986: 1491

>  <cas#>  (2197) 
55365-63-4

>  <source>  (2197) 
Lecanora gangaleoides

>  <status>  (2197) 
undetermined activity

>  <tradename>  (2197) 
nan

>  <SMILES>  (2197) 
COC(=O)c1c(OC)cc2OC(=O)c3c(Oc2c1C)c(Cl)c(O)c(Cl)c3C

>  <standardized_failed>  (2197) 
False

$$$$

     RDKit          2D

 29 33  0  0  0  0  0  0  0  0999 V2000
    6.7625   -8.0792    0.0000 C   0  0  0  0  0  0  0  0  0  0  0  0
    6.0500   -9.3167    0.0000 C   0  0  0  0  0  0  0  0  0  0  0  0
    5.3292   -8.9042    0.0000 C   0  0  0  0  0  0  0  0  0  0  0  0
    6.7625   -8.9042    0.0000 C   0  0  0  0  0  0  0  0  0  0  0  0
    7.4750   -7.6667    0.0000 C   0  0  0  0  0  0  0  0  0  0  0  0
    4.6167   -9.3167    0.0000 C   0  0  0  0  0  0  0  0  0  0  0  0
    6.0500   -7.6667    0.0000 O   0  0  0  0  0  0  0  0  0  0  0  0
    5.3292   -8.0792    0.0000 C   0  0  0  0  0  0  0  0  0  0  0  0
    3.9042   -8.9042    0.0000 C   0  0  0  0  0  0  0  0  0  0  0  0
    8.8042   -7.5250    0.0000 O   0  0  0  0  0  0  0  0  0  0  0  0
    8.1917   -8.0792    0.0000 C   0  0  0  0  0  0  0  0  0  0  0  0
    7.6500   -6.8625    0.0000 C   0  0  0  0  0  0  0  0  0  0  0  0
    8.4667   -6.7792    0.0000 C   0  0  0  0  0  0  0  0  0  0  0  0
    4.6167  -10.1500    0.0000 C   0  0  0  0  0  0  0  0  0  0  0  0
    3.9042   -8.0792    0.0000 O   0  0  0  0  0  0  0  0  0  0  0  0
    3.1875   -9.3167    0.0000 C   0  0  0  0  0  0  0  0  0  0  0  0
    7.4750   -9.3167    0.0000 C   0  0  0  0  0  0  0  0  0  0  0  0
    3.9042  -10.5625    0.0000 C   0  0  0  0  0  0  0  0  0  0  0  0
    3.1875  -10.1500    0.0000 C   0  0  0  0  0  0  0  0  0  0  0  0
    8.8792   -6.0500    0.0000 C   0  0  0  0  0  0  0  0  0  0  0  0
    4.6167   -7.6667    0.0000 C   0  0  0  0  0  0  0  0  0  0  0  0
    6.0500  -10.1417    0.0000 O   0  0  0  0  0  0  0  0  0  0  0  0
    8.1917   -8.9042    0.0000 C   0  0  0  0  0  0  0  0  0  0  0  0
    9.7042   -6.0375    0.0000 C   0  0  0  0  0  0  0  0  0  0  0  0
    3.9167  -11.3875    0.0000 O   0  0  0  0  0  0  0  0  0  0  0  0
    2.4625  -10.5667    0.0000 O   0  0  0  0  0  0  0  0  0  0  0  0
    8.4625   -5.3417    0.0000 C   0  0  0  0  0  0  0  0  0  0  0  0
    1.7417  -10.1500    0.0000 C   0  0  0  0  0  0  0  0  0  0  0  0
    4.6292  -11.7917    0.0000 C   0  0  0  0  0  0  0  0  0  0  0  0
  2  4  1  0
  3  8  1  0
  4  1  2  0
  5  1  1  0
  6  3  1  0
  7  1  1  0
  8  7  1  0
  9 15  1  0
 10 11  1  0
 11  5  2  0
 12  5  1  0
 13 12  1  0
 14  6  2  0
 15 21  1  0
 16  9  2  0
 17  4  1  0
 18 14  1  0
 19 16  1  0
 13 20  1  6
  8 21  1  1
 22  2  2  0
 23 11  1  0
 24 20  2  0
 25 18  1  0
 26 19  1  0
 27 20  1  0
 28 26  1  0
 29 25  1  0
  3  2  1  1
 13 10  1  0
 23 17  2  0
  6  9  1  0
 18 19  2  0
M  END
>  <ID>  (2198) 


>  <MOLENAME>  (2198) 
ROTENONE

>  <therap>  (2198) 
acaricide, ectoparasiticide, antineoplastic, mitochondrial poison

>  <ref>  (2198) 
Chem Rev 12: 181 (1933); Prog Chem Ord Nat Prod 43: 1 (1983)

>  <cas#>  (2198) 
83-79-4

>  <source>  (2198) 
Derris spp

>  <status>  (2198) 
agricultural use

>  <tradename>  (2198) 
nan

>  <SMILES>  (2198) 
C=C(C)[C@H]1Cc2c(ccc3c2O[C@@H]2COc4cc(OC)c(OC)cc4[C@@H]2C3=O)O1

>  <standardized_failed>  (2198) 
False

$$$$

     RDKit          2D

 14 14  0  0  0  0  0  0  0  0999 V2000
    5.0792   -4.4292    0.0000 C   0  0  0  0  0  0  0  0  0  0  0  0
    5.7917   -3.1917    0.0000 C   0  0  0  0  0  0  0  0  0  0  0  0
    5.0792   -3.6042    0.0000 C   0  0  0  0  0  0  0  0  0  0  0  0
    6.5125   -3.6042    0.0000 C   0  0  0  0  0  0  0  0  0  0  0  0
    5.7917   -4.8417    0.0000 C   0  0  0  0  0  0  0  0  0  0  0  0
    6.5125   -4.4292    0.0000 C   0  0  0  0  0  0  0  0  0  0  0  0
    4.3625   -4.8417    0.0000 C   0  0  0  0  0  0  0  0  0  0  0  0
    4.3625   -5.6750    0.0000 O   0  0  0  0  0  0  0  0  0  0  0  0
    4.3625   -3.1792    0.0000 O   0  0  0  0  0  0  0  0  0  0  0  0
    7.2292   -3.1792    0.0000 O   0  0  0  0  0  0  0  0  0  0  0  0
    7.2292   -4.8417    0.0000 O   0  0  0  0  0  0  0  0  0  0  0  0
    7.9542   -3.5917    0.0000 C   0  0  0  0  0  0  0  0  0  0  0  0
    7.9417   -4.4250    0.0000 C   0  0  0  0  0  0  0  0  0  0  0  0
    4.3667   -2.3417    0.0000 C   0  0  0  0  0  0  0  0  0  0  0  0
  2  3  1  0
  3  1  2  0
  4  6  1  0
  5  1  1  0
  6  5  2  0
  7  1  1  0
  8  7  2  0
  9  3  1  0
 10  4  1  0
 11  6  1  0
 12 10  1  0
 13 11  1  0
 14  9  1  0
  4  2  2  0
M  END
>  <ID>  (2199) 


>  <MOLENAME>  (2199) 
ASARYLALDEHYDE

>  <therap>  (2199) 
fly attractant

>  <ref>  (2199) 
J Nat Prod 39: 412 (1976)

>  <cas#>  (2199) 
4460-86-0

>  <source>  (2199) 
Daucus carota, Acorus calamus, Asarum europaeum

>  <status>  (2199) 
experimental

>  <tradename>  (2199) 
nan

>  <SMILES>  (2199) 
COc1c(C=O)cc(OC)c(OC)c1

>  <standardized_failed>  (2199) 
False

$$$$

     RDKit          2D

 12 12  0  0  0  0  0  0  0  0999 V2000
    0.6750   -0.3667    0.0000 C   0  0  0  0  0  0  0  0  0  0  0  0
    0.2625    0.3458    0.0000 C   0  0  0  0  0  0  0  0  0  0  0  0
    1.0875    0.3458    0.0000 C   0  0  0  0  0  0  0  0  0  0  0  0
   -0.4500    0.7583    0.0000 C   0  0  0  0  0  0  0  0  0  0  0  0
    1.7917    0.7583    0.0000 C   0  0  0  0  0  0  0  0  0  0  0  0
   -1.1625    0.3458    0.0000 C   0  0  0  0  0  0  0  0  0  0  0  0
    1.7917    1.5833    0.0000 O   0  0  0  0  0  0  0  0  0  0  0  0
   -0.0458   -0.7750    0.0000 C   0  0  0  0  0  0  0  0  0  0  0  0
    1.3875   -0.7792    0.0000 C   0  0  0  0  0  0  0  0  0  0  0  0
    2.5042    0.3500    0.0000 O   0  0  0  0  0  0  0  0  0  0  0  0
   -1.8833    0.7583    0.0000 C   0  0  0  0  0  0  0  0  0  0  0  0
   -1.1625   -0.4792    0.0000 C   0  0  0  0  0  0  0  0  0  0  0  0
  2  1  1  0
  3  1  1  0
  4  2  1  0
  5  3  1  0
  6  4  2  0
  7  5  2  0
  8  1  1  0
  9  1  1  0
 10  5  1  0
 11  6  1  0
 12  6  1  0
  2  3  1  0
M  END
>  <ID>  (2200) 


>  <MOLENAME>  (2200) 
CHRYSANTHEMIC ACID

>  <therap>  (2200) 
esters as insecticide

>  <ref>  (2200) 
J Chem Soc 1945:283

>  <cas#>  (2200) 
10453-89-1

>  <source>  (2200) 
esters as constituent of pyrethrum flowers

>  <status>  (2200) 
experimental

>  <tradename>  (2200) 
nan

>  <SMILES>  (2200) 
CC(C)=CC1C(C(=O)O)C1(C)C

>  <standardized_failed>  (2200) 
False

$$$$

     RDKit          2D

 30 33  0  0  0  0  0  0  0  0999 V2000
    2.4667    0.1583    0.0000 C   0  0  0  0  0  0  0  0  0  0  0  0
    0.2417   -1.1292    0.0000 C   0  0  0  0  0  0  0  0  0  0  0  0
    0.2417   -1.9792    0.0000 C   0  0  0  0  0  0  0  0  0  0  0  0
    2.4667   -0.7042    0.0000 C   0  0  0  0  0  0  0  0  0  0  0  0
    0.9792   -0.7042    0.0000 C   0  0  0  0  0  0  0  0  0  0  0  0
    1.7167   -1.1292    0.0000 C   0  0  0  0  0  0  0  0  0  0  0  0
    3.2792    0.4083    0.0000 C   0  0  0  0  0  0  0  0  0  0  0  0
    0.9792   -2.4042    0.0000 C   0  0  0  0  0  0  0  0  0  0  0  0
    1.7167    0.5833    0.0000 C   0  0  0  0  0  0  0  0  0  0  0  0
    1.7167   -1.9792    0.0000 C   0  0  0  0  0  0  0  0  0  0  0  0
    0.9792    0.1583    0.0000 C   0  0  0  0  0  0  0  0  0  0  0  0
    3.2792   -0.9667    0.0000 C   0  0  0  0  0  0  0  0  0  0  0  0
   -0.4958   -0.7042    0.0000 C   0  0  0  0  0  0  0  0  0  0  0  0
    3.7667   -0.2792    0.0000 C   0  0  0  0  0  0  0  0  0  0  0  0
   -0.4958   -2.4042    0.0000 C   0  0  0  0  0  0  0  0  0  0  0  0
    3.5292    1.2208    0.0000 C   0  0  0  0  0  0  0  0  0  0  0  0
    4.3667    1.3958    0.0000 C   0  0  0  0  0  0  0  0  0  0  0  0
    4.9292    0.7708    0.0000 C   0  0  0  0  0  0  0  0  0  0  0  0
    2.4667    0.7833    0.0000 C   0  0  0  0  0  0  0  0  0  0  0  0
    5.7667    0.9458    0.0000 C   0  0  0  0  0  0  0  0  0  0  0  0
   -1.2208   -1.1292    0.0000 C   0  0  0  0  0  0  0  0  0  0  0  0
   -1.2208   -1.9792    0.0000 C   0  0  0  0  0  0  0  0  0  0  0  0
    0.2417   -0.3542    0.0000 C   0  0  0  0  0  0  0  0  0  0  0  0
    6.3292    0.3083    0.0000 C   0  0  0  0  0  0  0  0  0  0  0  0
   -1.9583   -2.4042    0.0000 O   0  0  0  0  0  0  0  0  0  0  0  0
    6.0167    1.7583    0.0000 C   0  0  0  0  0  0  0  0  0  0  0  0
    2.9667    1.8583    0.0000 C   0  0  0  0  0  0  0  0  0  0  0  0
    6.0667   -0.4917    0.0000 C   0  0  0  0  0  0  0  0  0  0  0  0
    7.1667    0.4958    0.0000 C   0  0  0  0  0  0  0  0  0  0  0  0
    5.4667    2.3708    0.0000 C   0  0  0  0  0  0  0  0  0  0  0  0
  2  5  1  0
  3  2  1  0
  4  1  1  0
  5 11  1  0
  6  4  1  0
  7  1  1  0
  8 10  1  0
  9  1  1  0
 10  6  1  0
 11  9  1  0
 12  4  1  0
 13  2  1  0
 14  7  1  0
 15  3  1  0
  7 16  1  1
 17 16  1  0
 18 17  1  0
  1 19  1  1
 20 18  1  0
 21 13  1  0
 22 21  1  0
  2 23  1  1
 24 20  1  0
 22 25  1  1
 26 20  1  0
 27 16  1  0
 28 24  1  0
 29 24  1  0
 30 26  1  0
 12 14  1  0
  6  5  1  0
  8  3  2  0
 22 15  1  0
M  END
>  <ID>  (2201) 


>  <MOLENAME>  (2201) 
beta-SITOSTEROL

>  <therap>  (2201) 
nan

>  <ref>  (2201) 
J Am Chem Soc 48: 2987 (1926)

>  <cas#>  (2201) 
83-46-5

>  <source>  (2201) 
widespread in plants

>  <status>  (2201) 
undetermined activity

>  <tradename>  (2201) 
nan

>  <SMILES>  (2201) 
CCC(CCC(C)[C@H]1CCC2C3CC=C4C[C@@H](O)CC[C@]4(C)C3CC[C@@]21C)C(C)C

>  <standardized_failed>  (2201) 
False

$$$$

     RDKit          2D

 24 27  0  0  0  0  0  0  0  0999 V2000
    4.5000   -1.7292    0.0000 C   0  0  0  0  0  0  0  0  0  0  0  0
    3.0625   -2.5667    0.0000 C   0  0  0  0  0  0  0  0  0  0  0  0
    4.5000   -2.5667    0.0000 C   0  0  0  0  0  0  0  0  0  0  0  0
    2.3417   -2.9750    0.0000 C   0  0  0  0  0  0  0  0  0  0  0  0
    3.7792   -2.9750    0.0000 C   0  0  0  0  0  0  0  0  0  0  0  0
    3.7792   -1.3292    0.0000 C   0  0  0  0  0  0  0  0  0  0  0  0
    5.2917   -1.4792    0.0000 C   0  0  0  0  0  0  0  0  0  0  0  0
    3.0625   -1.7292    0.0000 C   0  0  0  0  0  0  0  0  0  0  0  0
    2.3417   -3.7917    0.0000 C   0  0  0  0  0  0  0  0  0  0  0  0
    5.2917   -2.8167    0.0000 C   0  0  0  0  0  0  0  0  0  0  0  0
    1.6250   -2.5667    0.0000 C   0  0  0  0  0  0  0  0  0  0  0  0
    5.7667   -2.1167    0.0000 C   0  0  0  0  0  0  0  0  0  0  0  0
    3.7792   -3.7917    0.0000 C   0  0  0  0  0  0  0  0  0  0  0  0
    5.5125   -0.6875    0.0000 C   0  0  0  0  0  0  0  0  0  0  0  0
    3.0625   -4.1917    0.0000 C   0  0  0  0  0  0  0  0  0  0  0  0
    1.6250   -4.1917    0.0000 C   0  0  0  0  0  0  0  0  0  0  0  0
    6.3042   -0.4250    0.0000 O   0  0  0  0  0  0  0  0  0  0  0  0
    3.7792   -0.5042    0.0000 O   0  0  0  0  0  0  0  0  0  0  0  0
    4.5000   -0.9167    0.0000 C   0  0  0  0  0  0  0  0  0  0  0  0
    0.9042   -2.9750    0.0000 C   0  0  0  0  0  0  0  0  0  0  0  0
    0.9042   -3.7917    0.0000 C   0  0  0  0  0  0  0  0  0  0  0  0
    2.3542   -2.1750    0.0000 C   0  0  0  0  0  0  0  0  0  0  0  0
    0.1750   -4.1917    0.0000 O   0  0  0  0  0  0  0  0  0  0  0  0
    5.0375   -0.0125    0.0000 C   0  0  0  0  0  0  0  0  0  0  0  0
  2  8  1  0
  3  1  1  0
  4  2  1  0
  5  3  1  0
  6  1  1  0
  7  1  1  0
  8  6  1  0
  9  4  1  0
 10  3  1  0
 11  4  1  0
 12  7  1  0
 13  5  1  0
 14  7  1  0
 15 13  1  0
 16  9  1  0
 17 14  2  0
  6 18  1  6
 19  1  1  0
 20 11  1  0
 21 20  1  0
 22  4  1  0
 21 23  1  6
 24 14  1  0
 12 10  1  0
  2  5  1  0
  9 15  1  0
 16 21  1  0
M  END
>  <ID>  (2202) 


>  <MOLENAME>  (2202) 
DIHYDROXY (3alpha.12alpha)PREGNAN-20-ONE

>  <therap>  (2202) 
nan

>  <ref>  (2202) 
nan

>  <cas#>  (2202) 
nan

>  <source>  (2202) 
semisynthetic

>  <status>  (2202) 
undetermined activity

>  <tradename>  (2202) 
nan

>  <SMILES>  (2202) 
CC(=O)C1CCC2C3CCC4C[C@H](O)CCC4(C)C3C[C@H](O)C12C

>  <standardized_failed>  (2202) 
False

$$$$

     RDKit          2D

 38 42  0  0  0  0  0  0  0  0999 V2000
    4.8542   -2.2500    0.0000 C   0  0  0  0  0  0  0  0  0  0  0  0
    5.5792   -2.6542    0.0000 C   0  0  0  0  0  0  0  0  0  0  0  0
    4.1417   -2.6542    0.0000 C   0  0  0  0  0  0  0  0  0  0  0  0
    4.8542   -1.4042    0.0000 C   0  0  0  0  0  0  0  0  0  0  0  0
    4.8542   -3.0667    0.0000 O   0  0  0  0  0  0  0  0  0  0  0  0
    2.7000   -2.6542    0.0000 C   0  0  0  0  0  0  0  0  0  0  0  0
    3.4250   -2.2500    0.0000 C   0  0  0  0  0  0  0  0  0  0  0  0
    6.3000   -2.2500    0.0000 C   0  0  0  0  0  0  0  0  0  0  0  0
    2.7000   -3.4792    0.0000 C   0  0  0  0  0  0  0  0  0  0  0  0
    5.5792   -1.0042    0.0000 C   0  0  0  0  0  0  0  0  0  0  0  0
    6.3000   -1.4042    0.0000 O   0  0  0  0  0  0  0  0  0  0  0  0
    1.9875   -3.8917    0.0000 C   0  0  0  0  0  0  0  0  0  0  0  0
    4.1417   -3.4792    0.0000 C   0  0  0  0  0  0  0  0  0  0  0  0
    1.9792   -2.2500    0.0000 C   0  0  0  0  0  0  0  0  0  0  0  0
    1.2667   -3.4792    0.0000 C   0  0  0  0  0  0  0  0  0  0  0  0
    3.4292   -3.8917    0.0000 C   0  0  0  0  0  0  0  0  0  0  0  0
    1.2542   -2.6542    0.0000 C   0  0  0  0  0  0  0  0  0  0  0  0
    4.1417   -1.0042    0.0000 C   0  0  0  0  0  0  0  0  0  0  0  0
    5.5792   -0.1792    0.0000 C   0  0  0  0  0  0  0  0  0  0  0  0
    3.4250   -1.4042    0.0000 C   0  0  0  0  0  0  0  0  0  0  0  0
    1.9792   -1.4292    0.0000 O   0  0  0  0  0  0  0  0  0  0  0  0
    0.5417   -3.9167    0.0000 O   0  0  0  0  0  0  0  0  0  0  0  0
   -0.1875   -3.5042    0.0000 C   0  0  0  0  0  0  0  0  0  0  0  0
    1.2542   -1.0292    0.0000 C   0  0  0  0  0  0  0  0  0  0  0  0
    7.0250   -2.6542    0.0000 O   0  0  0  0  0  0  0  0  0  0  0  0
    4.8542    0.2250    0.0000 O   0  0  0  0  0  0  0  0  0  0  0  0
    0.5167   -1.4500    0.0000 O   0  0  0  0  0  0  0  0  0  0  0  0
   -0.9000   -3.9167    0.0000 O   0  0  0  0  0  0  0  0  0  0  0  0
    4.1417   -1.8667    0.0000 C   0  0  0  0  0  0  0  0  0  0  0  0
    4.8542   -0.5917    0.0000 C   0  0  0  0  0  0  0  0  0  0  0  0
    4.8792   -3.8917    0.0000 O   0  0  0  0  0  0  0  0  0  0  0  0
    2.7000   -1.8417    0.0000 C   0  0  0  0  0  0  0  0  0  0  0  0
    6.3000    0.2250    0.0000 O   0  0  0  0  0  0  0  0  0  0  0  0
    1.2667   -4.3292    0.0000 C   0  0  0  0  0  0  0  0  0  0  0  0
    2.7000   -4.3042    0.0000 C   0  0  0  0  0  0  0  0  0  0  0  0
   -0.1875   -2.6542    0.0000 C   0  0  0  0  0  0  0  0  0  0  0  0
    1.2542   -0.1792    0.0000 C   0  0  0  0  0  0  0  0  0  0  0  0
    6.9417   -0.1542    0.0000 C   0  0  0  0  0  0  0  0  0  0  0  0
  2  1  1  0
  3  1  1  0
  4  1  1  0
  5  1  1  0
  6  7  1  0
  7  3  1  0
  8  2  1  0
  9 16  1  0
 10  4  1  0
 11 10  1  0
 12  9  1  0
 13  3  1  0
 14  6  1  0
 15 12  1  0
 16 13  1  0
 17 14  1  0
 18  4  1  0
 10 19  1  6
 20 18  1  0
 14 21  1  6
 15 22  1  6
 23 22  1  0
 24 21  1  0
 25  8  2  0
 26 19  2  0
 27 24  2  0
 28 23  2  0
  3 29  1  1
  4 30  1  6
 13 31  1  6
  6 32  1  1
 33 19  1  0
 34 12  1  0
 35 12  1  0
 36 23  1  0
 37 24  1  0
 38 33  1  0
  2  5  1  0
 20  7  1  0
 11  8  1  0
  6  9  1  0
 17 15  1  0
M  END
>  <ID>  (2203) 


>  <MOLENAME>  (2203) 
DESACETYL (7)KHIVORINIC ACID. METHYL ESTER

>  <therap>  (2203) 
nan

>  <ref>  (2203) 
nan

>  <cas#>  (2203) 
nan

>  <source>  (2203) 
semisynthetic

>  <status>  (2203) 
undetermined activity

>  <tradename>  (2203) 
nan

>  <SMILES>  (2203) 
COC(=O)[C@@H]1OC(=O)C2OC23[C@@]1(C)CCC1[C@]2(C)C(C[C@@H](O)[C@]13C)C(C)(C)[C@H](OC(C)=O)C[C@@H]2OC(C)=O

>  <standardized_failed>  (2203) 
False

$$$$

     RDKit          2D

 17 19  0  0  0  0  0  0  0  0999 V2000
    2.4292   -0.6000    0.0000 C   0  0  0  0  0  0  0  0  0  0  0  0
    3.2875   -0.0917    0.0000 C   0  0  0  0  0  0  0  0  0  0  0  0
    2.4292   -1.5667    0.0000 C   0  0  0  0  0  0  0  0  0  0  0  0
    4.1500   -0.6000    0.0000 C   0  0  0  0  0  0  0  0  0  0  0  0
    1.5875   -0.0917    0.0000 C   0  0  0  0  0  0  0  0  0  0  0  0
    3.2875    0.8958    0.0000 C   0  0  0  0  0  0  0  0  0  0  0  0
    1.5667   -2.0750    0.0000 C   0  0  0  0  0  0  0  0  0  0  0  0
    5.0375   -0.0917    0.0000 C   0  0  0  0  0  0  0  0  0  0  0  0
    0.7125   -1.5667    0.0000 C   0  0  0  0  0  0  0  0  0  0  0  0
    4.1500   -1.6000    0.0000 C   0  0  0  0  0  0  0  0  0  0  0  0
    3.2875   -2.0750    0.0000 C   0  0  0  0  0  0  0  0  0  0  0  0
   -0.1500   -2.0750    0.0000 O   0  0  0  0  0  0  0  0  0  0  0  0
    0.7000   -0.5750    0.0000 C   0  0  0  0  0  0  0  0  0  0  0  0
    4.1500    1.3750    0.0000 C   0  0  0  0  0  0  0  0  0  0  0  0
    5.0292    0.8625    0.0000 C   0  0  0  0  0  0  0  0  0  0  0  0
    2.4167    0.3250    0.0000 C   0  0  0  0  0  0  0  0  0  0  0  0
    5.9125    1.3458    0.0000 C   0  0  0  0  0  0  0  0  0  0  0  0
  2  1  1  0
  3  1  1  0
  4  2  2  0
  5  1  1  0
  6  2  1  0
  3  7  1  1
  8  4  1  0
  9 13  1  0
 10 11  1  0
 11  3  1  0
 12  9  2  0
 13  5  1  0
 14  6  2  0
 15 14  1  0
  1 16  1  1
 17 15  1  0
  7  9  1  0
 10  4  1  0
 15  8  2  0
M  END
>  <ID>  (2204) 


>  <MOLENAME>  (2204) 
13-METHYL-4.4-BISNOR-8.11.13-PODOCARPATRIEN-3-ONE

>  <therap>  (2204) 
nan

>  <ref>  (2204) 
nan

>  <cas#>  (2204) 
nan

>  <source>  (2204) 
semisynthetic

>  <status>  (2204) 
undetermined activity

>  <tradename>  (2204) 
nan

>  <SMILES>  (2204) 
Cc1cc2c(cc1)[C@@]1(C)CCC(=O)C[C@@H]1CC2

>  <standardized_failed>  (2204) 
False

$$$$

     RDKit          2D

 14 13  0  0  0  0  0  0  0  0999 V2000
    4.5000  -19.9292    0.0000 S   0  0  0  0  0  0  0  0  0  0  0  0
    6.6417  -21.1750    0.0000 C   0  0  0  0  0  0  0  0  0  0  0  0
    3.7792  -20.3417    0.0000 N   0  0  0  0  0  0  0  0  0  0  0  0
    5.2125  -19.5167    0.0000 O   0  0  0  0  0  0  0  0  0  0  0  0
    5.2125  -21.1750    0.0000 C   0  0  0  0  0  0  0  0  0  0  0  0
    5.2125  -20.3417    0.0000 C   0  0  0  0  0  0  0  0  0  0  0  0
    5.9292  -21.5875    0.0000 C   0  0  0  0  0  0  0  0  0  0  0  0
    6.6417  -20.3417    0.0000 O   0  0  0  0  0  0  0  0  0  0  0  0
    7.3542  -21.5875    0.0000 O   0  0  0  0  0  0  0  0  0  0  0  0
    5.9292  -22.4125    0.0000 N   0  0  0  0  0  0  0  0  0  0  0  0
    4.5000  -19.1042    0.0000 C   0  0  0  0  0  0  0  0  0  0  0  0
    3.7875  -18.6917    0.0000 C   0  0  0  0  0  0  0  0  0  0  0  0
    3.7875  -17.8625    0.0000 C   0  0  0  0  0  0  0  0  0  0  0  0
    3.0750  -17.4500    0.0000 C   0  0  0  0  0  0  0  0  0  0  0  0
  2  7  1  0
  3  1  2  0
  4  1  2  0
  5  6  1  0
  6  1  1  0
  7  5  1  0
  8  2  2  0
  9  2  1  0
 10  7  1  0
 11  1  1  0
 12 11  1  0
 13 12  1  0
 14 13  1  0
M  END
>  <ID>  (2205) 


>  <MOLENAME>  (2205) 
L-BUTHIONINE SULFOXIMINE

>  <therap>  (2205) 
inhibitor of gamma-glutamylcysteine synthetase

>  <ref>  (2205) 
J Biol Chem 254:7558 (1979); 257:13704 (1982); Bone Marrow Transplant 30:135 (2002)

>  <cas#>  (2205) 
83730-53-4

>  <source>  (2205) 
synthetic

>  <status>  (2205) 
experimental

>  <tradename>  (2205) 
nan

>  <SMILES>  (2205) 
CCCCS(=N)(=O)CCC(N)C(=O)O

>  <standardized_failed>  (2205) 
False

$$$$

     RDKit          2D

 14 15  0  0  0  0  0  0  0  0999 V2000
    3.4542    0.4083    0.0000 C   0  0  0  0  0  0  0  0  0  0  0  0
    3.4542   -0.4250    0.0000 C   0  0  0  0  0  0  0  0  0  0  0  0
    2.7333    0.8292    0.0000 C   0  0  0  0  0  0  0  0  0  0  0  0
    2.7292   -0.8375    0.0000 O   0  0  0  0  0  0  0  0  0  0  0  0
    2.0167    0.4083    0.0000 C   0  0  0  0  0  0  0  0  0  0  0  0
    2.0125   -0.4250    0.0000 C   0  0  0  0  0  0  0  0  0  0  0  0
    4.1708    0.8167    0.0000 C   0  0  0  0  0  0  0  0  0  0  0  0
    4.1667   -0.8417    0.0000 O   0  0  0  0  0  0  0  0  0  0  0  0
    4.1708    1.6417    0.0000 O   0  0  0  0  0  0  0  0  0  0  0  0
    1.3000    0.8208    0.0000 C   0  0  0  0  0  0  0  0  0  0  0  0
    1.3000   -0.8333    0.0000 C   0  0  0  0  0  0  0  0  0  0  0  0
    4.8833    0.4042    0.0000 C   0  0  0  0  0  0  0  0  0  0  0  0
    0.5875    0.4083    0.0000 C   0  0  0  0  0  0  0  0  0  0  0  0
    0.5875   -0.4208    0.0000 C   0  0  0  0  0  0  0  0  0  0  0  0
  2  1  1  0
  3  1  2  0
  4  2  1  0
  5  3  1  0
  6  5  2  0
  7  1  1  0
  8  2  2  0
  9  7  2  0
 10  5  1  0
 11  6  1  0
 12  7  1  0
 13 10  2  0
 14 11  2  0
  4  6  1  0
 14 13  1  0
M  END
>  <ID>  (2206) 


>  <MOLENAME>  (2206) 
3-ACETYLCOUMARIN

>  <therap>  (2206) 
nan

>  <ref>  (2206) 
nan

>  <cas#>  (2206) 
nan

>  <source>  (2206) 
synthetic

>  <status>  (2206) 
experimental

>  <tradename>  (2206) 
nan

>  <SMILES>  (2206) 
CC(=O)c1cc2c(cccc2)oc1=O

>  <standardized_failed>  (2206) 
False

$$$$

     RDKit          2D

 24 26  0  0  0  0  0  0  0  0999 V2000
    5.4042   -3.2292    0.0000 C   0  0  0  0  0  0  0  0  0  0  0  0
    6.8167   -3.2375    0.0000 C   0  0  0  0  0  0  0  0  0  0  0  0
    6.1125   -2.8250    0.0000 C   0  0  0  0  0  0  0  0  0  0  0  0
    5.3917   -4.0542    0.0000 C   0  0  0  0  0  0  0  0  0  0  0  0
    4.6875   -4.4625    0.0000 C   0  0  0  0  0  0  0  0  0  0  0  0
    7.5375   -2.8250    0.0000 C   0  0  0  0  0  0  0  0  0  0  0  0
    5.2667   -5.0417    0.0000 C   0  0  0  0  0  0  0  0  0  0  0  0
    6.8250   -4.0542    0.0000 C   0  0  0  0  0  0  0  0  0  0  0  0
    6.1042   -4.4667    0.0000 C   0  0  0  0  0  0  0  0  0  0  0  0
    6.1042   -2.0000    0.0000 C   0  0  0  0  0  0  0  0  0  0  0  0
    7.5375   -1.9917    0.0000 C   0  0  0  0  0  0  0  0  0  0  0  0
    6.0917   -5.0417    0.0000 O   0  0  0  0  0  0  0  0  0  0  0  0
    6.8167   -1.5792    0.0000 C   0  0  0  0  0  0  0  0  0  0  0  0
    8.2542   -3.2375    0.0000 C   0  0  0  0  0  0  0  0  0  0  0  0
    4.7000   -2.8167    0.0000 C   0  0  0  0  0  0  0  0  0  0  0  0
    5.4000   -2.4042    0.0000 C   0  0  0  0  0  0  0  0  0  0  0  0
    5.0542   -5.8417    0.0000 O   0  0  0  0  0  0  0  0  0  0  0  0
    3.9792   -4.0417    0.0000 C   0  0  0  0  0  0  0  0  0  0  0  0
    4.1000   -5.0417    0.0000 C   0  0  0  0  0  0  0  0  0  0  0  0
    8.2500   -1.5792    0.0000 O   0  0  0  0  0  0  0  0  0  0  0  0
    3.9875   -3.2167    0.0000 C   0  0  0  0  0  0  0  0  0  0  0  0
    8.9667   -2.8167    0.0000 C   0  0  0  0  0  0  0  0  0  0  0  0
    8.2542   -4.0625    0.0000 C   0  0  0  0  0  0  0  0  0  0  0  0
    4.2542   -6.0542    0.0000 C   0  0  0  0  0  0  0  0  0  0  0  0
  2  3  2  0
  3  1  1  0
  4  1  1  0
  5  4  1  0
  6  2  1  0
  5  7  1  0
  8  9  1  0
  9  4  1  0
 10  3  1  0
 11 13  1  0
 12  7  2  0
 13 10  2  0
 14  6  1  0
 15  1  1  0
  1 16  1  1
 17  7  1  0
 18 21  1  0
  5 19  1  6
 20 11  1  0
 21 15  1  0
 22 14  1  0
 23 14  1  0
 24 17  1  0
 18  5  1  0
  8  2  1  0
 11  6  2  0
M  END
>  <ID>  (2207) 


>  <MOLENAME>  (2207) 
TOTAROL-19-CARBOXYLIC ACID. METHYL ESTER

>  <therap>  (2207) 
nan

>  <ref>  (2207) 
J Chem Soc 1963: 1553

>  <cas#>  (2207) 
nan

>  <source>  (2207) 
Podocarpus spp

>  <status>  (2207) 
undetermined activity

>  <tradename>  (2207) 
nan

>  <SMILES>  (2207) 
COC(=O)[C@@]1(C)CCC[C@]2(C)c3c(CCC12)c(C(C)C)c(O)cc3

>  <standardized_failed>  (2207) 
False

$$$$

     RDKit          2D

 30 35  0  0  0  0  0  0  0  0999 V2000
    6.9792   -6.1917    0.0000 C   0  0  0  0  0  0  0  0  0  0  0  0
    9.0667   -5.5292    0.0000 C   0  0  0  0  0  0  0  0  0  0  0  0
    6.9792   -7.0167    0.0000 C   0  0  0  0  0  0  0  0  0  0  0  0
    4.8375   -7.4292    0.0000 C   0  0  0  0  0  0  0  0  0  0  0  0
    7.7667   -5.9375    0.0000 C   0  0  0  0  0  0  0  0  0  0  0  0
    4.8375   -8.2542    0.0000 C   0  0  0  0  0  0  0  0  0  0  0  0
    9.0667   -6.4667    0.0000 O   0  0  0  0  0  0  0  0  0  0  0  0
    8.2500   -6.6042    0.0000 C   0  0  0  0  0  0  0  0  0  0  0  0
    5.5500   -7.0167    0.0000 C   0  0  0  0  0  0  0  0  0  0  0  0
    6.2667   -7.4292    0.0000 C   0  0  0  0  0  0  0  0  0  0  0  0
    7.7667   -7.2750    0.0000 C   0  0  0  0  0  0  0  0  0  0  0  0
    8.1042   -5.1792    0.0000 C   0  0  0  0  0  0  0  0  0  0  0  0
    9.0167   -4.7042    0.0000 O   0  0  0  0  0  0  0  0  0  0  0  0
    6.2625   -5.7792    0.0000 C   0  0  0  0  0  0  0  0  0  0  0  0
    5.5500   -8.6667    0.0000 C   0  0  0  0  0  0  0  0  0  0  0  0
    6.2667   -8.2542    0.0000 C   0  0  0  0  0  0  0  0  0  0  0  0
    5.5500   -6.1917    0.0000 C   0  0  0  0  0  0  0  0  0  0  0  0
    4.1250   -7.0167    0.0000 C   0  0  0  0  0  0  0  0  0  0  0  0
    4.1250   -8.6667    0.0000 C   0  0  0  0  0  0  0  0  0  0  0  0
    9.8042   -5.9000    0.0000 C   0  0  0  0  0  0  0  0  0  0  0  0
    6.9792   -5.3667    0.0000 C   0  0  0  0  0  0  0  0  0  0  0  0
    9.7042   -4.2542    0.0000 C   0  0  0  0  0  0  0  0  0  0  0  0
    3.4042   -7.4292    0.0000 C   0  0  0  0  0  0  0  0  0  0  0  0
    3.4042   -8.2542    0.0000 C   0  0  0  0  0  0  0  0  0  0  0  0
    4.8375   -6.6042    0.0000 C   0  0  0  0  0  0  0  0  0  0  0  0
   10.4417   -5.4042    0.0000 C   0  0  0  0  0  0  0  0  0  0  0  0
   10.4417   -4.6125    0.0000 C   0  0  0  0  0  0  0  0  0  0  0  0
    2.6875   -8.6792    0.0000 O   0  0  0  0  0  0  0  0  0  0  0  0
    8.0750   -4.3417    0.0000 C   0  0  0  0  0  0  0  0  0  0  0  0
   11.1292   -4.1417    0.0000 C   0  0  0  0  0  0  0  0  0  0  0  0
  2 12  1  0
  3  1  1  0
  4  9  1  0
  5  1  1  0
  6  4  1  0
  7  8  1  0
  8  5  1  0
  9 17  1  0
 10  3  1  0
 11  3  1  0
 12  5  1  0
  2 13  1  0
 14  1  1  0
 15 16  1  0
 16 10  1  0
 17 14  1  0
 18  4  1  0
 19  6  1  0
  2 20  1  1
  1 21  1  1
 22 13  1  0
 23 18  1  0
 24 23  1  0
  4 25  1  1
 26 20  1  0
 27 26  1  0
 24 28  1  1
 12 29  1  6
 27 30  1  6
 11  8  1  0
 10  9  1  0
  7  2  1  0
  6 15  2  0
 22 27  1  0
 19 24  1  0
M  END
>  <ID>  (2208) 


>  <MOLENAME>  (2208) 
DIOSGENIN

>  <therap>  (2208) 
antiinflammatory, estrogen

>  <ref>  (2208) 
Konstitution und Vorkommen der Organischen Pflanzenstoffe,2nd edn, # 2095 (1972); Anal Profiles Drug Subst 23:99 (1994)

>  <cas#>  (2208) 
512-04-9

>  <source>  (2208) 
Clintonia, Dioscorea and Solanum spp, Trillium erectum, Balanites aegyptiaca, Aletris farinosa

>  <status>  (2208) 
experimental

>  <tradename>  (2208) 
nan

>  <SMILES>  (2208) 
C[C@H]1C2C(CC3C4CC=C5C[C@@H](O)CC[C@]5(C)C4CC[C@@]32C)O[C@]12CC[C@@H](C)CO2

>  <standardized_failed>  (2208) 
False

$$$$

     RDKit          2D

 29 33  0  0  0  0  0  0  0  0999 V2000
    6.7042   -4.2042    0.0000 C   0  0  0  0  0  0  0  0  0  0  0  0
    4.5417   -4.6167    0.0000 C   0  0  0  0  0  0  0  0  0  0  0  0
    6.7042   -3.3667    0.0000 C   0  0  0  0  0  0  0  0  0  0  0  0
    4.5417   -5.4542    0.0000 C   0  0  0  0  0  0  0  0  0  0  0  0
    5.2792   -4.2042    0.0000 C   0  0  0  0  0  0  0  0  0  0  0  0
    5.9792   -4.6167    0.0000 C   0  0  0  0  0  0  0  0  0  0  0  0
    7.7167   -2.3125    0.0000 C   0  0  0  0  0  0  0  0  0  0  0  0
    7.4875   -3.1167    0.0000 C   0  0  0  0  0  0  0  0  0  0  0  0
    8.5042   -2.0667    0.0000 C   0  0  0  0  0  0  0  0  0  0  0  0
    8.5042   -1.2500    0.0000 C   0  0  0  0  0  0  0  0  0  0  0  0
    7.4875   -4.4417    0.0000 C   0  0  0  0  0  0  0  0  0  0  0  0
    5.9792   -2.9750    0.0000 C   0  0  0  0  0  0  0  0  0  0  0  0
    3.8417   -4.2042    0.0000 C   0  0  0  0  0  0  0  0  0  0  0  0
    5.2792   -3.3667    0.0000 C   0  0  0  0  0  0  0  0  0  0  0  0
    3.8417   -5.8500    0.0000 C   0  0  0  0  0  0  0  0  0  0  0  0
    7.7292   -0.9792    0.0000 O   0  0  0  0  0  0  0  0  0  0  0  0
    7.9625   -3.7875    0.0000 C   0  0  0  0  0  0  0  0  0  0  0  0
    5.9792   -5.4292    0.0000 C   0  0  0  0  0  0  0  0  0  0  0  0
    5.2792   -5.8500    0.0000 C   0  0  0  0  0  0  0  0  0  0  0  0
    7.2417   -1.6500    0.0000 C   0  0  0  0  0  0  0  0  0  0  0  0
    4.5417   -3.8042    0.0000 C   0  0  0  0  0  0  0  0  0  0  0  0
    9.1750   -0.7667    0.0000 O   0  0  0  0  0  0  0  0  0  0  0  0
    6.7042   -5.0125    0.0000 O   0  0  0  0  0  0  0  0  0  0  0  0
    4.5417   -6.2667    0.0000 O   0  0  0  0  0  0  0  0  0  0  0  0
    3.8667   -3.3667    0.0000 O   0  0  0  0  0  0  0  0  0  0  0  0
    3.1167   -5.4292    0.0000 C   0  0  0  0  0  0  0  0  0  0  0  0
    6.7042   -2.5250    0.0000 C   0  0  0  0  0  0  0  0  0  0  0  0
    3.1167   -4.6167    0.0000 C   0  0  0  0  0  0  0  0  0  0  0  0
    2.3000   -5.8750    0.0000 O   0  0  0  0  0  0  0  0  0  0  0  0
  2  5  1  0
  3  1  1  0
  4 19  1  0
  5  6  1  0
  6  1  1  0
  7  8  1  0
  8  3  1  0
  9  7  2  0
 10  9  1  0
 11  1  1  0
 12  3  1  0
 13  2  1  0
 14  5  1  0
 15  4  1  0
 16 20  1  0
 17 11  1  0
 18  6  1  0
 19 18  1  0
 20  7  1  0
  2 21  1  1
 22 10  2  0
  1 23  1  1
  4 24  1  1
 25 21  2  0
 26 15  1  0
  3 27  1  1
 28 13  1  0
 26 29  1  1
  8 17  1  0
 14 12  1  0
  2  4  1  0
 28 26  1  0
 16 10  1  0
M  END
>  <ID>  (2209) 


>  <MOLENAME>  (2209) 
STROPHANTHIDIN

>  <therap>  (2209) 
cardiotonic

>  <ref>  (2209) 
J Soc Chem Ind 53: 956 (1934)

>  <cas#>  (2209) 
66-28-4

>  <source>  (2209) 
Strophanthus kombe

>  <status>  (2209) 
experimental

>  <tradename>  (2209) 
nan

>  <SMILES>  (2209) 
C[C@]12CCC3C(CC[C@]4(O)C[C@@H](O)CC[C@]34C=O)[C@@]1(O)CCC2C1=CC(=O)OC1

>  <standardized_failed>  (2209) 
False

$$$$

     RDKit          2D

 35 40  0  0  0  0  0  0  0  0999 V2000
    6.7375   -3.3292    0.0000 C   0  0  0  0  0  0  0  0  0  0  0  0
    7.6042   -3.8042    0.0000 C   0  0  0  0  0  0  0  0  0  0  0  0
    5.8542   -3.8042    0.0000 C   0  0  0  0  0  0  0  0  0  0  0  0
    6.7375   -2.3042    0.0000 C   0  0  0  0  0  0  0  0  0  0  0  0
    6.7625   -4.2667    0.0000 O   0  0  0  0  0  0  0  0  0  0  0  0
    4.0750   -3.8042    0.0000 C   0  0  0  0  0  0  0  0  0  0  0  0
    4.9542   -3.3292    0.0000 C   0  0  0  0  0  0  0  0  0  0  0  0
    8.4750   -3.3292    0.0000 C   0  0  0  0  0  0  0  0  0  0  0  0
    4.0750   -4.8292    0.0000 C   0  0  0  0  0  0  0  0  0  0  0  0
    7.6042   -1.7792    0.0000 C   0  0  0  0  0  0  0  0  0  0  0  0
    8.4750   -2.3042    0.0000 O   0  0  0  0  0  0  0  0  0  0  0  0
    5.8542   -4.8042    0.0000 C   0  0  0  0  0  0  0  0  0  0  0  0
    3.2042   -5.3542    0.0000 C   0  0  0  0  0  0  0  0  0  0  0  0
    3.2042   -3.3292    0.0000 C   0  0  0  0  0  0  0  0  0  0  0  0
    7.6042   -0.9542    0.0000 C   0  0  0  0  0  0  0  0  0  0  0  0
    4.9917   -5.3042    0.0000 C   0  0  0  0  0  0  0  0  0  0  0  0
    5.8542   -1.7792    0.0000 C   0  0  0  0  0  0  0  0  0  0  0  0
    2.3167   -4.8292    0.0000 C   0  0  0  0  0  0  0  0  0  0  0  0
    2.3167   -3.8042    0.0000 C   0  0  0  0  0  0  0  0  0  0  0  0
    4.9542   -2.3042    0.0000 C   0  0  0  0  0  0  0  0  0  0  0  0
    6.7250   -5.3167    0.0000 O   0  0  0  0  0  0  0  0  0  0  0  0
    6.7250   -6.2917    0.0000 C   0  0  0  0  0  0  0  0  0  0  0  0
    9.3625   -3.8417    0.0000 O   0  0  0  0  0  0  0  0  0  0  0  0
    8.2875   -0.2167    0.0000 C   0  0  0  0  0  0  0  0  0  0  0  0
    6.7000   -0.5000    0.0000 C   0  0  0  0  0  0  0  0  0  0  0  0
    7.8292    0.6750    0.0000 O   0  0  0  0  0  0  0  0  0  0  0  0
    6.8292    0.4750    0.0000 C   0  0  0  0  0  0  0  0  0  0  0  0
    1.4417   -5.3417    0.0000 O   0  0  0  0  0  0  0  0  0  0  0  0
    7.5875   -6.8042    0.0000 O   0  0  0  0  0  0  0  0  0  0  0  0
    5.8542   -2.5917    0.0000 C   0  0  0  0  0  0  0  0  0  0  0  0
    6.7375   -1.2792    0.0000 C   0  0  0  0  0  0  0  0  0  0  0  0
    4.0750   -2.6667    0.0000 C   0  0  0  0  0  0  0  0  0  0  0  0
    4.0750   -5.8917    0.0000 C   0  0  0  0  0  0  0  0  0  0  0  0
    2.3167   -5.8917    0.0000 C   0  0  0  0  0  0  0  0  0  0  0  0
    5.7917   -6.8417    0.0000 C   0  0  0  0  0  0  0  0  0  0  0  0
  2  1  1  0
  3  1  1  0
  4  1  1  0
  1  5  1  1
  6  7  1  0
  7  3  1  0
  8  2  1  0
  9 16  1  0
 10  4  1  0
 10 11  1  6
 12  3  1  0
 13  9  1  0
 14  6  1  0
 10 15  1  0
 16 12  1  0
 17  4  1  0
 18 13  1  0
 19 14  2  0
 20 17  1  0
 12 21  1  6
 22 21  1  0
 23  8  2  0
 24 15  2  0
 25 15  1  0
 26 24  1  0
 27 25  2  0
 28 18  2  0
 29 22  2  0
  3 30  1  1
  4 31  1  6
  6 32  1  1
 33 13  1  0
 34 13  1  0
 35 22  1  0
  2  5  1  1
  7 20  1  0
  8 11  1  0
  9  6  1  0
 27 26  1  0
 18 19  1  0
M  END
>  <ID>  (2210) 


>  <MOLENAME>  (2210) 
GEDUNIN

>  <therap>  (2210) 
antifeedant; heat shock inducer

>  <ref>  (2210) 
J Chem Soc 1960:3827; 1962:5095; 1967:1026; 1969:864; 1970:421

>  <cas#>  (2210) 
2753-30-2

>  <source>  (2210) 
numerous Meliaceae species

>  <status>  (2210) 
experimental

>  <tradename>  (2210) 
nan

>  <SMILES>  (2210) 
CC(=O)O[C@@H]1CC2C(C)(C)C(=O)C=C[C@]2(C)C2CC[C@@]3(C)[C@H](c4cocc4)OC(=O)[C@H]4O[C@]43[C@@]21C

>  <standardized_failed>  (2210) 
False

$$$$

     RDKit          2D

 21 23  0  0  0  0  0  0  0  0999 V2000
    2.1667   -0.9625    0.0000 C   0  0  0  0  0  0  0  0  0  0  0  0
    2.8792   -1.3750    0.0000 C   0  0  0  0  0  0  0  0  0  0  0  0
    3.5917   -0.9625    0.0000 C   0  0  0  0  0  0  0  0  0  0  0  0
    3.5917   -0.1375    0.0000 C   0  0  0  0  0  0  0  0  0  0  0  0
    2.1667   -0.1375    0.0000 C   0  0  0  0  0  0  0  0  0  0  0  0
    2.8792    0.2750    0.0000 O   0  0  0  0  0  0  0  0  0  0  0  0
    1.4542   -1.3750    0.0000 C   0  0  0  0  0  0  0  0  0  0  0  0
    1.4542    0.2750    0.0000 C   0  0  0  0  0  0  0  0  0  0  0  0
    0.7375   -0.9625    0.0000 C   0  0  0  0  0  0  0  0  0  0  0  0
    0.7375   -0.1375    0.0000 C   0  0  0  0  0  0  0  0  0  0  0  0
    2.8792   -2.2000    0.0000 O   0  0  0  0  0  0  0  0  0  0  0  0
    4.3042    0.2750    0.0000 C   0  0  0  0  0  0  0  0  0  0  0  0
    1.4500   -2.2000    0.0000 O   0  0  0  0  0  0  0  0  0  0  0  0
    0.0167    0.2750    0.0000 O   0  0  0  0  0  0  0  0  0  0  0  0
    4.3042    1.1083    0.0000 C   0  0  0  0  0  0  0  0  0  0  0  0
    5.0250   -0.1375    0.0000 C   0  0  0  0  0  0  0  0  0  0  0  0
    2.1542   -2.6125    0.0000 C   0  0  0  0  0  0  0  0  0  0  0  0
    0.0167    1.1000    0.0000 C   0  0  0  0  0  0  0  0  0  0  0  0
    5.7417    0.2750    0.0000 C   0  0  0  0  0  0  0  0  0  0  0  0
    5.0167    1.5208    0.0000 C   0  0  0  0  0  0  0  0  0  0  0  0
    5.7417    1.1083    0.0000 C   0  0  0  0  0  0  0  0  0  0  0  0
  2  1  1  0
  3  2  1  0
  4  6  1  0
  5  1  2  0
  6  5  1  0
  7  1  1  0
  8  5  1  0
  9  7  2  0
 10  9  1  0
 11  2  2  0
 12  4  1  0
 13  7  1  0
 14 10  1  0
 15 12  2  0
 16 12  1  0
 17 13  1  0
 18 14  1  0
 19 16  2  0
 20 15  1  0
 21 19  1  0
 10  8  2  0
  4  3  2  0
 20 21  2  0
M  END
>  <ID>  (2211) 


>  <MOLENAME>  (2211) 
CHRYSIN DIMETHYL ETHER

>  <therap>  (2211) 
nan

>  <ref>  (2211) 
nan

>  <cas#>  (2211) 
21392-57-4

>  <source>  (2211) 
Boesenburgia pandurata, Leptosermum scoparium

>  <status>  (2211) 
undetermined activity

>  <tradename>  (2211) 
nan

>  <SMILES>  (2211) 
COc1cc2c(c(OC)c1)c(=O)cc(-c1ccccc1)o2

>  <standardized_failed>  (2211) 
False

$$$$

     RDKit          2D

 21 23  0  0  0  0  0  0  0  0999 V2000
    3.6167   -2.7000    0.0000 C   0  0  0  0  0  0  0  0  0  0  0  0
    3.6167   -1.9500    0.0000 C   0  0  0  0  0  0  0  0  0  0  0  0
    2.9667   -1.5750    0.0000 O   0  0  0  0  0  0  0  0  0  0  0  0
    2.9667   -3.0750    0.0000 C   0  0  0  0  0  0  0  0  0  0  0  0
    2.3167   -1.9500    0.0000 C   0  0  0  0  0  0  0  0  0  0  0  0
    2.3167   -2.7000    0.0000 C   0  0  0  0  0  0  0  0  0  0  0  0
    1.6750   -1.5750    0.0000 C   0  0  0  0  0  0  0  0  0  0  0  0
    1.6750   -3.0750    0.0000 C   0  0  0  0  0  0  0  0  0  0  0  0
    4.2667   -1.5750    0.0000 C   0  0  0  0  0  0  0  0  0  0  0  0
    2.9667   -3.8250    0.0000 O   0  0  0  0  0  0  0  0  0  0  0  0
    4.2667   -3.0792    0.0000 O   0  0  0  0  0  0  0  0  0  0  0  0
    1.0250   -1.9500    0.0000 C   0  0  0  0  0  0  0  0  0  0  0  0
    1.0250   -2.7000    0.0000 C   0  0  0  0  0  0  0  0  0  0  0  0
    0.3667   -1.5667    0.0000 O   0  0  0  0  0  0  0  0  0  0  0  0
    4.2667   -0.8250    0.0000 C   0  0  0  0  0  0  0  0  0  0  0  0
    4.9167   -1.9500    0.0000 C   0  0  0  0  0  0  0  0  0  0  0  0
    4.9167   -2.7042    0.0000 C   0  0  0  0  0  0  0  0  0  0  0  0
    0.3667   -0.8167    0.0000 C   0  0  0  0  0  0  0  0  0  0  0  0
    5.5667   -1.5750    0.0000 C   0  0  0  0  0  0  0  0  0  0  0  0
    4.9125   -0.4500    0.0000 C   0  0  0  0  0  0  0  0  0  0  0  0
    5.5667   -0.8250    0.0000 C   0  0  0  0  0  0  0  0  0  0  0  0
  2  1  2  0
  3  2  1  0
  4  1  1  0
  5  6  2  0
  6  4  1  0
  7  5  1  0
  8  6  1  0
  9  2  1  0
 10  4  2  0
 11  1  1  0
 12 13  1  0
 13  8  2  0
 14 12  1  0
 15  9  2  0
 16  9  1  0
 17 11  1  0
 18 14  1  0
 19 16  2  0
 20 15  1  0
 21 19  1  0
  3  5  1  0
 12  7  2  0
 21 20  2  0
M  END
>  <ID>  (2212) 


>  <MOLENAME>  (2212) 
3.7-DIMETHOXYFLAVONE

>  <therap>  (2212) 
nan

>  <ref>  (2212) 
nan

>  <cas#>  (2212) 
20950-52-1

>  <source>  (2212) 
Pongamia pinnata

>  <status>  (2212) 
undetermined activity

>  <tradename>  (2212) 
nan

>  <SMILES>  (2212) 
COc1cc2c(cc1)c(=O)c(OC)c(-c1ccccc1)o2

>  <standardized_failed>  (2212) 
False

$$$$

     RDKit          2D

 29 31  0  0  0  0  0  0  0  0999 V2000
    0.8042   -0.2500    0.0000 C   0  0  0  0  0  0  0  0  0  0  0  0
   -0.0208   -0.2500    0.0000 C   0  0  0  0  0  0  0  0  0  0  0  0
   -0.4333    0.4708    0.0000 C   0  0  0  0  0  0  0  0  0  0  0  0
    1.2167    0.4708    0.0000 O   0  0  0  0  0  0  0  0  0  0  0  0
   -0.0250    1.1833    0.0000 C   0  0  0  0  0  0  0  0  0  0  0  0
    0.8042    1.1833    0.0000 C   0  0  0  0  0  0  0  0  0  0  0  0
    1.2250   -0.9542    0.0000 O   0  0  0  0  0  0  0  0  0  0  0  0
    1.6417   -1.6667    0.0000 C   0  0  0  0  0  0  0  0  0  0  0  0
    3.7042   -2.3792    0.0000 C   0  0  0  0  0  0  0  0  0  0  0  0
    4.1167   -3.0917    0.0000 C   0  0  0  0  0  0  0  0  0  0  0  0
    1.2292   -2.3792    0.0000 C   0  0  0  0  0  0  0  0  0  0  0  0
    2.8792   -2.3792    0.0000 C   0  0  0  0  0  0  0  0  0  0  0  0
    1.6417   -3.0917    0.0000 C   0  0  0  0  0  0  0  0  0  0  0  0
   -0.4333   -0.9667    0.0000 O   0  0  0  0  0  0  0  0  0  0  0  0
    2.4667   -1.6667    0.0000 C   0  0  0  0  0  0  0  0  0  0  0  0
   -1.2583    0.4625    0.0000 O   0  0  0  0  0  0  0  0  0  0  0  0
   -0.4375    1.8958    0.0000 O   0  0  0  0  0  0  0  0  0  0  0  0
    4.9417   -3.0917    0.0000 C   0  0  0  0  0  0  0  0  0  0  0  0
    2.4667   -3.0917    0.0000 C   0  0  0  0  0  0  0  0  0  0  0  0
    6.5875   -3.0917    0.0000 C   0  0  0  0  0  0  0  0  0  0  0  0
    1.2125    1.8958    0.0000 C   0  0  0  0  0  0  0  0  0  0  0  0
    1.2292   -3.8042    0.0000 O   0  0  0  0  0  0  0  0  0  0  0  0
    5.3500   -3.8125    0.0000 C   0  0  0  0  0  0  0  0  0  0  0  0
    5.3417   -2.3792    0.0000 C   0  0  0  0  0  0  0  0  0  0  0  0
    6.1667   -2.3792    0.0000 C   0  0  0  0  0  0  0  0  0  0  0  0
    6.1750   -3.8125    0.0000 C   0  0  0  0  0  0  0  0  0  0  0  0
    7.4125   -3.0917    0.0000 O   0  0  0  0  0  0  0  0  0  0  0  0
    0.6792    2.5208    0.0000 O   0  0  0  0  0  0  0  0  0  0  0  0
    7.8250   -3.8042    0.0000 C   0  0  0  0  0  0  0  0  0  0  0  0
  2  1  1  0
  3  2  1  0
  4  1  1  0
  5  6  1  0
  6  4  1  0
  1  7  1  1
  8  7  1  0
  9 12  1  0
 10  9  2  0
 11  8  2  0
 12 15  2  0
 13 11  1  0
  2 14  1  6
 15  8  1  0
  3 16  1  1
  5 17  1  6
 18 10  1  0
 19 12  1  0
 20 25  2  0
  6 21  1  1
 22 13  1  0
 23 18  1  0
 24 18  2  0
 25 24  1  0
 26 23  2  0
 27 20  1  0
 28 21  1  0
 29 27  1  0
  5  3  1  0
 19 13  2  0
 20 26  1  0
M  END
>  <ID>  (2213) 


>  <MOLENAME>  (2213) 
PICEID METHYL ETHER

>  <therap>  (2213) 
antioxidant

>  <ref>  (2213) 
Phytochemistry 32: 1083 (1993)

>  <cas#>  (2213) 
30197-14-9

>  <source>  (2213) 
reservatrol-3-glucoside methyl ether

>  <status>  (2213) 
experimental

>  <tradename>  (2213) 
nan

>  <SMILES>  (2213) 
COc1ccc(/C=C/c2cc(O[C@@H]3O[C@H](CO)[C@@H](O)[C@H](O)[C@H]3O)cc(O)c2)cc1

>  <standardized_failed>  (2213) 
False

$$$$

     RDKit          2D

 14 15  0  0  0  0  0  0  0  0999 V2000
    5.7292   -3.3042    0.0000 C   0  0  0  0  0  0  0  0  0  0  0  0
    5.7292   -4.1292    0.0000 C   0  0  0  0  0  0  0  0  0  0  0  0
    5.0167   -2.8917    0.0000 C   0  0  0  0  0  0  0  0  0  0  0  0
    6.4417   -4.5417    0.0000 C   0  0  0  0  0  0  0  0  0  0  0  0
    6.4417   -2.8917    0.0000 O   0  0  0  0  0  0  0  0  0  0  0  0
    7.1625   -3.3042    0.0000 C   0  0  0  0  0  0  0  0  0  0  0  0
    7.1625   -4.1292    0.0000 C   0  0  0  0  0  0  0  0  0  0  0  0
    5.0167   -4.5417    0.0000 C   0  0  0  0  0  0  0  0  0  0  0  0
    4.3042   -3.3042    0.0000 C   0  0  0  0  0  0  0  0  0  0  0  0
    7.8792   -2.8917    0.0000 O   0  0  0  0  0  0  0  0  0  0  0  0
    4.3042   -4.1292    0.0000 C   0  0  0  0  0  0  0  0  0  0  0  0
    5.0167   -2.0667    0.0000 O   0  0  0  0  0  0  0  0  0  0  0  0
    3.5792   -2.8917    0.0000 O   0  0  0  0  0  0  0  0  0  0  0  0
    6.4417   -5.3667    0.0000 C   0  0  0  0  0  0  0  0  0  0  0  0
  2  1  1  0
  3  1  2  0
  4  2  1  0
  5  1  1  0
  6  5  1  0
  7  6  1  0
  8  2  2  0
  9  3  1  0
 10  6  2  0
 11  9  2  0
 12  3  1  0
 13  9  1  0
 14  4  1  0
  4  7  2  0
  8 11  1  0
M  END
>  <ID>  (2214) 


>  <MOLENAME>  (2214) 
4-METHYLDAPHNETIN

>  <therap>  (2214) 
nan

>  <ref>  (2214) 
nan

>  <cas#>  (2214) 
2107-77-9

>  <source>  (2214) 
analog of daphnetin

>  <status>  (2214) 
undetermined activity

>  <tradename>  (2214) 
nan

>  <SMILES>  (2214) 
Cc1cc(=O)oc2c(O)c(O)ccc12

>  <standardized_failed>  (2214) 
False

$$$$

     RDKit          2D

 14 15  0  0  0  0  0  0  0  0999 V2000
    0.2167    2.5958    0.0000 C   0  0  0  0  0  0  0  0  0  0  0  0
    0.2167    1.8708    0.0000 C   0  0  0  0  0  0  0  0  0  0  0  0
    0.8417    1.5083    0.0000 C   0  0  0  0  0  0  0  0  0  0  0  0
    0.8417    2.9583    0.0000 O   0  0  0  0  0  0  0  0  0  0  0  0
    1.4750    2.5958    0.0000 C   0  0  0  0  0  0  0  0  0  0  0  0
    1.4750    1.8708    0.0000 C   0  0  0  0  0  0  0  0  0  0  0  0
   -0.4208    2.9583    0.0000 C   0  0  0  0  0  0  0  0  0  0  0  0
   -0.4208    1.5083    0.0000 C   0  0  0  0  0  0  0  0  0  0  0  0
   -1.0375    1.8708    0.0000 C   0  0  0  0  0  0  0  0  0  0  0  0
   -1.0375    2.5958    0.0000 C   0  0  0  0  0  0  0  0  0  0  0  0
    2.1000    2.9583    0.0000 O   0  0  0  0  0  0  0  0  0  0  0  0
   -1.6625    1.5083    0.0000 O   0  0  0  0  0  0  0  0  0  0  0  0
   -1.6708    2.9583    0.0000 O   0  0  0  0  0  0  0  0  0  0  0  0
    0.8417    0.7833    0.0000 C   0  0  0  0  0  0  0  0  0  0  0  0
  2  1  2  0
  3  2  1  0
  4  1  1  0
  5  4  1  0
  6  5  1  0
  7  1  1  0
  8  2  1  0
  9 10  1  0
 10  7  2  0
 11  5  2  0
 12  9  1  0
 13 10  1  0
 14  3  1  0
  8  9  2  0
  3  6  2  0
M  END
>  <ID>  (2215) 


>  <MOLENAME>  (2215) 
4-METHYLESCULETIN

>  <therap>  (2215) 
nan

>  <ref>  (2215) 
nan

>  <cas#>  (2215) 
nan

>  <source>  (2215) 
analog of esculetin

>  <status>  (2215) 
undetermined activity

>  <tradename>  (2215) 
nan

>  <SMILES>  (2215) 
Cc1cc(=O)oc2c1cc(O)c(O)c2

>  <standardized_failed>  (2215) 
False

$$$$

     RDKit          2D

 21 22  0  0  0  0  0  0  0  0999 V2000
    5.7625   -3.9667    0.0000 C   0  0  0  0  0  0  0  0  0  0  0  0
    5.0500   -2.7250    0.0000 C   0  0  0  0  0  0  0  0  0  0  0  0
    5.7625   -3.1417    0.0000 C   0  0  0  0  0  0  0  0  0  0  0  0
    4.3417   -3.1417    0.0000 C   0  0  0  0  0  0  0  0  0  0  0  0
    5.0500   -4.3750    0.0000 C   0  0  0  0  0  0  0  0  0  0  0  0
    4.3417   -3.9667    0.0000 C   0  0  0  0  0  0  0  0  0  0  0  0
    6.4792   -4.3792    0.0000 C   0  0  0  0  0  0  0  0  0  0  0  0
    6.4792   -2.7292    0.0000 O   0  0  0  0  0  0  0  0  0  0  0  0
    3.6250   -4.3792    0.0000 O   0  0  0  0  0  0  0  0  0  0  0  0
    7.1917   -3.9667    0.0000 C   0  0  0  0  0  0  0  0  0  0  0  0
    5.0500   -1.9000    0.0000 O   0  0  0  0  0  0  0  0  0  0  0  0
    6.4750   -5.2042    0.0000 C   0  0  0  0  0  0  0  0  0  0  0  0
    3.6250   -2.7292    0.0000 O   0  0  0  0  0  0  0  0  0  0  0  0
    7.9125   -4.3792    0.0000 C   0  0  0  0  0  0  0  0  0  0  0  0
    5.7542   -5.6125    0.0000 C   0  0  0  0  0  0  0  0  0  0  0  0
    7.1875   -5.6125    0.0000 C   0  0  0  0  0  0  0  0  0  0  0  0
    5.7667   -1.4875    0.0000 C   0  0  0  0  0  0  0  0  0  0  0  0
    3.6250   -1.9042    0.0000 C   0  0  0  0  0  0  0  0  0  0  0  0
    5.7500   -6.4292    0.0000 C   0  0  0  0  0  0  0  0  0  0  0  0
    7.1792   -6.4417    0.0000 C   0  0  0  0  0  0  0  0  0  0  0  0
    6.4625   -6.8500    0.0000 C   0  0  0  0  0  0  0  0  0  0  0  0
  2  3  1  0
  3  1  1  0
  4  6  1  0
  5  1  2  0
  6  5  1  0
  7  1  1  0
  8  3  2  0
  9  6  2  0
  7 10  1  6
 11  2  1  0
 12  7  1  0
 13  4  1  0
 14 10  2  0
 15 12  2  0
 16 12  1  0
 17 11  1  0
 18 13  1  0
 19 15  1  0
 20 16  2  0
 21 20  1  0
  2  4  2  0
 21 19  2  0
M  END
>  <ID>  (2216) 


>  <MOLENAME>  (2216) 
3.4-DIMETHOXYDALBERGIONE

>  <therap>  (2216) 
induces dermatitis

>  <ref>  (2216) 
Tetrahedron 21: 2697 (9165)

>  <cas#>  (2216) 
41043-20-3

>  <source>  (2216) 
Dalbergia spp, Machaerium spp

>  <status>  (2216) 
undetermined activity

>  <tradename>  (2216) 
nan

>  <SMILES>  (2216) 
C=C[C@@H](C1=CC(=O)C(OC)=C(OC)C1=O)c1ccccc1

>  <standardized_failed>  (2216) 
False

$$$$

     RDKit          2D

 20 22  0  0  0  0  0  0  0  0999 V2000
    5.7542   -4.4417    0.0000 C   0  0  0  0  0  0  0  0  0  0  0  0
    6.4042   -4.0667    0.0000 C   0  0  0  0  0  0  0  0  0  0  0  0
    6.4042   -3.3250    0.0000 C   0  0  0  0  0  0  0  0  0  0  0  0
    5.1042   -4.0667    0.0000 C   0  0  0  0  0  0  0  0  0  0  0  0
    5.1042   -3.3250    0.0000 C   0  0  0  0  0  0  0  0  0  0  0  0
    5.7542   -2.9500    0.0000 O   0  0  0  0  0  0  0  0  0  0  0  0
    4.4542   -4.4417    0.0000 C   0  0  0  0  0  0  0  0  0  0  0  0
    4.4542   -2.9500    0.0000 C   0  0  0  0  0  0  0  0  0  0  0  0
    3.8042   -4.0667    0.0000 C   0  0  0  0  0  0  0  0  0  0  0  0
    5.7542   -5.2000    0.0000 O   0  0  0  0  0  0  0  0  0  0  0  0
    3.8042   -3.3250    0.0000 C   0  0  0  0  0  0  0  0  0  0  0  0
    7.0500   -2.9417    0.0000 C   0  0  0  0  0  0  0  0  0  0  0  0
    3.1542   -2.9417    0.0000 O   0  0  0  0  0  0  0  0  0  0  0  0
    4.4542   -5.2000    0.0000 C   0  0  0  0  0  0  0  0  0  0  0  0
    7.0417   -2.2000    0.0000 C   0  0  0  0  0  0  0  0  0  0  0  0
    7.6917   -3.3250    0.0000 C   0  0  0  0  0  0  0  0  0  0  0  0
    3.1542   -2.1917    0.0000 C   0  0  0  0  0  0  0  0  0  0  0  0
    7.6917   -1.8250    0.0000 C   0  0  0  0  0  0  0  0  0  0  0  0
    8.3417   -2.9500    0.0000 C   0  0  0  0  0  0  0  0  0  0  0  0
    8.3417   -2.1917    0.0000 C   0  0  0  0  0  0  0  0  0  0  0  0
  2  1  1  0
  3  2  2  0
  4  1  1  0
  5  4  2  0
  6  5  1  0
  7  4  1  0
  8  5  1  0
  9  7  2  0
 10  1  2  0
 11  9  1  0
 12  3  1  0
 13 11  1  0
 14  7  1  0
 15 12  2  0
 16 12  1  0
 17 13  1  0
 18 15  1  0
 19 16  2  0
 20 19  1  0
  6  3  1  0
  8 11  2  0
 18 20  2  0
M  END
>  <ID>  (2217) 


>  <MOLENAME>  (2217) 
METHOXYVONE

>  <therap>  (2217) 
anabolic

>  <ref>  (2217) 
nan

>  <cas#>  (2217) 
nan

>  <source>  (2217) 
synthetic

>  <status>  (2217) 
experimental

>  <tradename>  (2217) 
nan

>  <SMILES>  (2217) 
COc1cc2c(c(C)c1)c(=O)cc(-c1ccccc1)o2

>  <standardized_failed>  (2217) 
False

$$$$

     RDKit          2D

 31 34  0  0  0  0  0  0  0  0999 V2000
    5.7167   -2.3417    0.0000 C   0  0  0  0  0  0  0  0  0  0  0  0
    5.7167   -1.4125    0.0000 C   0  0  0  0  0  0  0  0  0  0  0  0
    6.5250   -2.8000    0.0000 C   0  0  0  0  0  0  0  0  0  0  0  0
    4.9167   -0.9417    0.0000 C   0  0  0  0  0  0  0  0  0  0  0  0
    4.1042   -1.4125    0.0000 C   0  0  0  0  0  0  0  0  0  0  0  0
    7.3375   -2.3417    0.0000 C   0  0  0  0  0  0  0  0  0  0  0  0
    4.9167   -2.8000    0.0000 C   0  0  0  0  0  0  0  0  0  0  0  0
    4.1042   -2.3417    0.0000 C   0  0  0  0  0  0  0  0  0  0  0  0
    6.5250   -0.9417    0.0000 O   0  0  0  0  0  0  0  0  0  0  0  0
    7.3375   -1.4125    0.0000 C   0  0  0  0  0  0  0  0  0  0  0  0
    4.9167   -0.0125    0.0000 C   0  0  0  0  0  0  0  0  0  0  0  0
    3.2917   -0.9417    0.0000 O   0  0  0  0  0  0  0  0  0  0  0  0
    3.2750   -2.8000    0.0000 C   0  0  0  0  0  0  0  0  0  0  0  0
    4.1250    0.4500    0.0000 C   0  0  0  0  0  0  0  0  0  0  0  0
    8.1417   -2.8000    0.0000 C   0  0  0  0  0  0  0  0  0  0  0  0
    3.2917   -0.0125    0.0000 C   0  0  0  0  0  0  0  0  0  0  0  0
    2.4875   -2.3417    0.0000 C   0  0  0  0  0  0  0  0  0  0  0  0
    6.5250   -3.7292    0.0000 O   0  0  0  0  0  0  0  0  0  0  0  0
    1.6750   -2.8000    0.0000 C   0  0  0  0  0  0  0  0  0  0  0  0
    4.9167   -3.7292    0.0000 O   0  0  0  0  0  0  0  0  0  0  0  0
    8.9417   -2.3417    0.0000 C   0  0  0  0  0  0  0  0  0  0  0  0
    8.1417   -3.7292    0.0000 C   0  0  0  0  0  0  0  0  0  0  0  0
    9.7542   -3.7292    0.0000 C   0  0  0  0  0  0  0  0  0  0  0  0
    8.9417   -4.1917    0.0000 C   0  0  0  0  0  0  0  0  0  0  0  0
    9.7542   -2.8000    0.0000 C   0  0  0  0  0  0  0  0  0  0  0  0
   10.5833   -4.1917    0.0000 O   0  0  0  0  0  0  0  0  0  0  0  0
    3.3042    0.9000    0.0000 C   0  0  0  0  0  0  0  0  0  0  0  0
    2.4250   -0.4917    0.0000 C   0  0  0  0  0  0  0  0  0  0  0  0
    0.8542   -2.3417    0.0000 C   0  0  0  0  0  0  0  0  0  0  0  0
    1.6542   -3.7292    0.0000 C   0  0  0  0  0  0  0  0  0  0  0  0
   10.6000   -5.1458    0.0000 C   0  0  0  0  0  0  0  0  0  0  0  0
  2  1  2  0
  3  1  1  0
  4  2  1  0
  5  8  1  0
  6  3  1  0
  7  1  1  0
  8  7  2  0
  9  2  1  0
 10  9  1  0
 11  4  1  0
 12  5  1  0
 13  8  1  0
 14 11  2  0
 15  6  1  0
 16 12  1  0
 17 13  1  0
 18  3  2  0
 19 17  2  0
 20  7  1  0
 21 15  2  0
 22 15  1  0
 23 24  1  0
 24 22  2  0
 25 21  1  0
 26 23  1  0
 27 16  1  0
 28 16  1  0
 29 19  1  0
 30 19  1  0
 31 26  1  0
  4  5  2  0
  6 10  2  0
 14 16  1  0
 25 23  2  0
M  END
>  <ID>  (2218) 


>  <MOLENAME>  (2218) 
OSAJIN 4'-METHYL ETHER

>  <therap>  (2218) 
nan

>  <ref>  (2218) 
nan

>  <cas#>  (2218) 
27762-88-5

>  <source>  (2218) 
derivative of osajin

>  <status>  (2218) 
undetermined activity

>  <tradename>  (2218) 
nan

>  <SMILES>  (2218) 
COc1ccc(-c2coc3c(c(O)c(CC=C(C)C)c4c3C=CC(C)(C)O4)c2=O)cc1

>  <standardized_failed>  (2218) 
False

$$$$

     RDKit          2D

 32 34  0  0  0  0  0  0  0  0999 V2000
    7.1000   -1.2375    0.0000 C   0  0  0  0  0  0  0  0  0  0  0  0
    7.1000   -2.0625    0.0000 C   0  0  0  0  0  0  0  0  0  0  0  0
    3.2292   -2.7250    0.0000 C   0  0  0  0  0  0  0  0  0  0  0  0
    6.3750   -2.4792    0.0000 C   0  0  0  0  0  0  0  0  0  0  0  0
    2.5042   -3.1417    0.0000 C   0  0  0  0  0  0  0  0  0  0  0  0
    3.2292   -1.9000    0.0000 C   0  0  0  0  0  0  0  0  0  0  0  0
    6.3750   -0.8250    0.0000 O   0  0  0  0  0  0  0  0  0  0  0  0
    2.5042   -1.4875    0.0000 O   0  0  0  0  0  0  0  0  0  0  0  0
    5.6625   -2.0625    0.0000 C   0  0  0  0  0  0  0  0  0  0  0  0
    1.7917   -2.7250    0.0000 C   0  0  0  0  0  0  0  0  0  0  0  0
    5.6625   -1.2375    0.0000 C   0  0  0  0  0  0  0  0  0  0  0  0
    1.7917   -1.9000    0.0000 C   0  0  0  0  0  0  0  0  0  0  0  0
    7.8125   -0.8250    0.0000 O   0  0  0  0  0  0  0  0  0  0  0  0
    6.4167    0.7500    0.0000 N   0  0  0  0  0  0  0  0  0  0  0  0
    7.0917    0.4125    0.0000 C   0  0  0  0  0  0  0  0  0  0  0  0
    3.9417   -1.4875    0.0000 O   0  0  0  0  0  0  0  0  0  0  0  0
    7.8125   -0.0000    0.0000 C   0  0  0  0  0  0  0  0  0  0  0  0
    4.9417   -0.8250    0.0000 C   0  0  0  0  0  0  0  0  0  0  0  0
    7.8125   -2.4792    0.0000 O   0  0  0  0  0  0  0  0  0  0  0  0
    3.9417   -3.1417    0.0000 O   0  0  0  0  0  0  0  0  0  0  0  0
    8.5250    0.4125    0.0000 C   0  0  0  0  0  0  0  0  0  0  0  0
    6.3792   -3.3042    0.0000 O   0  0  0  0  0  0  0  0  0  0  0  0
    2.5042   -3.9667    0.0000 O   0  0  0  0  0  0  0  0  0  0  0  0
    4.9417   -2.4792    0.0000 O   0  0  0  0  0  0  0  0  0  0  0  0
    1.0750   -3.1417    0.0000 O   0  0  0  0  0  0  0  0  0  0  0  0
    1.0750   -1.4875    0.0000 C   0  0  0  0  0  0  0  0  0  0  0  0
    0.4417   -2.0167    0.0000 O   0  0  0  0  0  0  0  0  0  0  0  0
    9.2375   -0.0042    0.0000 C   0  0  0  0  0  0  0  0  0  0  0  0
    8.5167    1.2333    0.0000 C   0  0  0  0  0  0  0  0  0  0  0  0
    9.2292    1.6458    0.0000 C   0  0  0  0  0  0  0  0  0  0  0  0
    9.9500    0.4083    0.0000 C   0  0  0  0  0  0  0  0  0  0  0  0
    9.9500    1.2333    0.0000 C   0  0  0  0  0  0  0  0  0  0  0  0
  2  1  1  0
  3  6  1  0
  4  2  1  0
  5  3  1  0
  6 16  1  1
  7  1  1  0
  8  6  1  0
  9 11  1  0
 10 12  1  0
 11  7  1  0
 12  8  1  0
  1 13  1  1
 14 15  3  0
 15 17  1  0
 16 18  1  0
 17 13  1  0
 11 18  1  1
  2 19  1  6
  3 20  1  6
 21 17  1  0
  4 22  1  1
  5 23  1  1
  9 24  1  6
 10 25  1  6
 12 26  1  1
 27 26  1  0
 28 21  2  0
 29 21  1  0
 30 29  2  0
 31 28  1  0
 32 30  1  0
  4  9  1  0
 31 32  2  0
  5 10  1  0
M  END
>  <ID>  (2219) 


>  <MOLENAME>  (2219) 
AMYGDALIN

>  <therap>  (2219) 
antiinflammatory, experimental antineoplastic

>  <ref>  (2219) 
nan

>  <cas#>  (2219) 
29883-15-6

>  <source>  (2219) 
Rosaceae spp

>  <status>  (2219) 
experimental

>  <tradename>  (2219) 
nan

>  <SMILES>  (2219) 
N#CC(O[C@@H]1O[C@H](CO[C@@H]2O[C@H](CO)[C@@H](O)[C@H](O)[C@H]2O)[C@@H](O)[C@H](O)[C@H]1O)c1ccccc1

>  <standardized_failed>  (2219) 
False

$$$$

     RDKit          2D

 26 30  0  0  0  0  0  0  0  0999 V2000
    3.2542   -0.8917    0.0000 C   0  0  0  0  0  0  0  0  0  0  0  0
    3.2542   -0.0792    0.0000 C   0  0  0  0  0  0  0  0  0  0  0  0
    2.5542   -1.3042    0.0000 N   0  0  0  0  0  0  0  0  0  0  0  0
    3.9542   -1.2917    0.0000 C   0  0  0  0  0  0  0  0  0  0  0  0
    4.6417   -2.5125    0.0000 C   0  0  0  0  0  0  0  0  0  0  0  0
    4.6667   -0.9000    0.0000 N   0  0  0  0  0  0  0  0  0  0  0  0
    4.5750   -3.3500    0.0000 C   0  0  0  0  0  0  0  0  0  0  0  0
    3.9500   -2.1042    0.0000 C   0  0  0  0  0  0  0  0  0  0  0  0
    1.8417   -0.0792    0.0000 C   0  0  0  0  0  0  0  0  0  0  0  0
    1.8417   -0.9000    0.0000 C   0  0  0  0  0  0  0  0  0  0  0  0
    5.3500   -2.1167    0.0000 C   0  0  0  0  0  0  0  0  0  0  0  0
    3.8917   -3.6792    0.0000 C   0  0  0  0  0  0  0  0  0  0  0  0
    5.3625   -1.3042    0.0000 C   0  0  0  0  0  0  0  0  0  0  0  0
    3.9625    0.3250    0.0000 C   0  0  0  0  0  0  0  0  0  0  0  0
    4.6667   -0.0792    0.0000 C   0  0  0  0  0  0  0  0  0  0  0  0
    5.3250   -3.7292    0.0000 C   0  0  0  0  0  0  0  0  0  0  0  0
    3.9042   -4.5292    0.0000 O   0  0  0  0  0  0  0  0  0  0  0  0
    6.0417   -2.5292    0.0000 C   0  0  0  0  0  0  0  0  0  0  0  0
    6.0292   -3.3375    0.0000 C   0  0  0  0  0  0  0  0  0  0  0  0
    3.2167   -3.2917    0.0000 O   0  0  0  0  0  0  0  0  0  0  0  0
    5.3125   -4.5500    0.0000 O   0  0  0  0  0  0  0  0  0  0  0  0
    1.1375    0.3333    0.0000 C   0  0  0  0  0  0  0  0  0  0  0  0
    1.1375   -1.3000    0.0000 C   0  0  0  0  0  0  0  0  0  0  0  0
    3.2250   -2.4792    0.0000 C   0  0  0  0  0  0  0  0  0  0  0  0
    0.4292   -0.0792    0.0000 C   0  0  0  0  0  0  0  0  0  0  0  0
    0.4292   -0.9000    0.0000 C   0  0  0  0  0  0  0  0  0  0  0  0
  2  1  2  0
  3  1  1  0
  4  1  1  0
  5  8  1  1
  6  4  1  0
  7  5  1  0
  4  8  1  1
  9  2  1  0
 10  3  1  0
 11  5  1  0
  7 12  1  1
 13  6  1  0
 14  2  1  0
 15  6  1  0
 16  7  1  0
 17 12  2  0
 11 18  1  6
 19 18  1  0
 20 12  1  0
 21 16  1  0
 22  9  2  0
 23 10  2  0
 24 20  1  0
 25 22  1  0
 26 23  1  0
  9 10  1  0
 15 14  1  0
 13 11  1  0
 25 26  2  0
 16 19  1  0
M  END
>  <ID>  (2220) 


>  <MOLENAME>  (2220) 
CORYNANTHINE

>  <therap>  (2220) 
nan

>  <ref>  (2220) 
Helv Chim Acta 9: 1207 (1951)

>  <cas#>  (2220) 
123333-62-0

>  <source>  (2220) 
bark of Pseudocinchona africana Chev.

>  <status>  (2220) 
undetermined activity

>  <tradename>  (2220) 
nan

>  <SMILES>  (2220) 
COC(=O)[C@@H]1C(O)CC[C@H]2CN3CCc4c([nH]c5ccccc45)[C@@H]3C[C@H]12

>  <standardized_failed>  (2220) 
False

$$$$

     RDKit          2D

 60 63  0  0  0  0  0  0  0  0999 V2000
    8.7875   -0.5667    0.0000 C   0  0  0  0  0  0  0  0  0  0  0  0
    8.1042   -1.7625    0.0000 C   0  0  0  0  0  0  0  0  0  0  0  0
    6.7292   -1.7667    0.0000 C   0  0  0  0  0  0  0  0  0  0  0  0
    2.4875   -4.1917    0.0000 C   0  0  0  0  0  0  0  0  0  0  0  0
    2.4917   -3.3750    0.0000 C   0  0  0  0  0  0  0  0  0  0  0  0
   -0.3708   -5.0042    0.0000 C   0  0  0  0  0  0  0  0  0  0  0  0
    7.4125   -1.3667    0.0000 C   0  0  0  0  0  0  0  0  0  0  0  0
    1.0542   -5.0167    0.0000 C   0  0  0  0  0  0  0  0  0  0  0  0
    3.9250   -3.3875    0.0000 C   0  0  0  0  0  0  0  0  0  0  0  0
    3.2042   -2.9667    0.0000 O   0  0  0  0  0  0  0  0  0  0  0  0
    0.3417   -4.5917    0.0000 O   0  0  0  0  0  0  0  0  0  0  0  0
    8.7875   -1.3542    0.0000 C   0  0  0  0  0  0  0  0  0  0  0  0
    8.1000   -0.1750    0.0000 C   0  0  0  0  0  0  0  0  0  0  0  0
    1.0500   -5.8375    0.0000 C   0  0  0  0  0  0  0  0  0  0  0  0
    3.9167   -4.2125    0.0000 C   0  0  0  0  0  0  0  0  0  0  0  0
    3.2000   -4.6167    0.0000 C   0  0  0  0  0  0  0  0  0  0  0  0
    7.4042   -0.5750    0.0000 C   0  0  0  0  0  0  0  0  0  0  0  0
   -0.3750   -5.8292    0.0000 C   0  0  0  0  0  0  0  0  0  0  0  0
    6.7375   -2.5667    0.0000 C   0  0  0  0  0  0  0  0  0  0  0  0
    0.3292   -6.2417    0.0000 C   0  0  0  0  0  0  0  0  0  0  0  0
    9.4667   -0.1667    0.0000 C   0  0  0  0  0  0  0  0  0  0  0  0
    1.7750   -4.6042    0.0000 O   0  0  0  0  0  0  0  0  0  0  0  0
    6.0500   -2.9667    0.0000 C   0  0  0  0  0  0  0  0  0  0  0  0
   10.1625    1.0250    0.0000 C   0  0  0  0  0  0  0  0  0  0  0  0
    1.7792   -2.9542    0.0000 C   0  0  0  0  0  0  0  0  0  0  0  0
   -1.0833   -4.5875    0.0000 C   0  0  0  0  0  0  0  0  0  0  0  0
    9.4667    0.6333    0.0000 C   0  0  0  0  0  0  0  0  0  0  0  0
   10.1542   -0.5667    0.0000 C   0  0  0  0  0  0  0  0  0  0  0  0
    4.6375   -2.9792    0.0000 O   0  0  0  0  0  0  0  0  0  0  0  0
    5.3542   -2.5750    0.0000 C   0  0  0  0  0  0  0  0  0  0  0  0
   10.5667    1.7458    0.0000 C   0  0  0  0  0  0  0  0  0  0  0  0
    8.1125   -2.5542    0.0000 C   0  0  0  0  0  0  0  0  0  0  0  0
    6.0375   -1.3792    0.0000 C   0  0  0  0  0  0  0  0  0  0  0  0
    7.4250   -2.9625    0.0000 C   0  0  0  0  0  0  0  0  0  0  0  0
    9.4667   -1.7542    0.0000 C   0  0  0  0  0  0  0  0  0  0  0  0
    6.6875   -0.1667    0.0000 O   0  0  0  0  0  0  0  0  0  0  0  0
   10.1542   -1.3542    0.0000 C   0  0  0  0  0  0  0  0  0  0  0  0
    5.3500   -1.7792    0.0000 C   0  0  0  0  0  0  0  0  0  0  0  0
    1.1500   -3.4875    0.0000 O   0  0  0  0  0  0  0  0  0  0  0  0
   -1.7125   -5.1167    0.0000 O   0  0  0  0  0  0  0  0  0  0  0  0
   11.3875    1.7583    0.0000 O   0  0  0  0  0  0  0  0  0  0  0  0
   10.8500    0.6208    0.0000 C   0  0  0  0  0  0  0  0  0  0  0  0
   10.8500   -0.1750    0.0000 C   0  0  0  0  0  0  0  0  0  0  0  0
   -1.1500   -3.7667    0.0000 O   0  0  0  0  0  0  0  0  0  0  0  0
    1.7125   -2.1375    0.0000 O   0  0  0  0  0  0  0  0  0  0  0  0
   10.1417    2.4583    0.0000 O   0  0  0  0  0  0  0  0  0  0  0  0
   12.8917    0.6583    0.0000 N   0  0  0  0  0  0  0  0  0  0  0  0
    0.0000   -2.7417    0.0000 N   0  0  0  0  0  0  0  0  0  0  0  0
   -3.1250   -5.8667    0.0000 N   0  0  0  0  0  0  0  0  0  0  0  0
    1.7625   -6.2542    0.0000 O   0  0  0  0  0  0  0  0  0  0  0  0
    4.6250   -4.6292    0.0000 O   0  0  0  0  0  0  0  0  0  0  0  0
    3.1875   -5.4417    0.0000 O   0  0  0  0  0  0  0  0  0  0  0  0
   -1.0875   -6.2375    0.0000 O   0  0  0  0  0  0  0  0  0  0  0  0
    0.3250   -7.0667    0.0000 O   0  0  0  0  0  0  0  0  0  0  0  0
    6.7250   -0.9417    0.0000 C   0  0  0  0  0  0  0  0  0  0  0  0
    8.1000   -0.9375    0.0000 C   0  0  0  0  0  0  0  0  0  0  0  0
    5.5125   -3.5292    0.0000 C   0  0  0  0  0  0  0  0  0  0  0  0
    6.4500   -3.4667    0.0000 C   0  0  0  0  0  0  0  0  0  0  0  0
    9.5750    1.6208    0.0000 C   0  0  0  0  0  0  0  0  0  0  0  0
   10.8667   -0.9792    0.0000 C   0  0  0  0  0  0  0  0  0  0  0  0
  2 12  1  0
  3  7  1  0
  4 16  1  0
  5 10  1  0
  6 11  1  0
  7 17  1  0
  8 22  1  1
  9 29  1  1
 10  9  1  0
 11  8  1  0
 12  1  1  0
 13  1  2  0
 14  8  1  0
 15  9  1  0
 16 15  1  0
 17 13  1  0
 18 20  1  0
 19  3  1  0
 20 14  1  0
 21  1  1  0
  4 22  1  6
 23 19  1  0
 24 27  1  0
  5 25  1  1
  6 26  1  1
 21 27  1  6
 28 21  1  0
 30 29  1  1
 30 38  1  0
 24 31  1  0
 32  2  1  0
 33  3  1  0
 34 32  1  0
 35 12  1  0
 36 17  2  0
 37 28  1  0
 38 33  1  0
 39 25  1  0
 40 26  1  0
 41 31  1  0
 42 43  1  0
 43 28  1  0
 44 26  2  0
 45 25  2  0
 46 31  2  0
 14 50  1  6
 15 51  1  6
 16 52  1  1
 18 53  1  6
 20 54  1  1
  3 55  1  1
  2 56  1  1
 57 23  1  0
 58 23  1  0
 24 59  1  6
 28 60  1  1
 37 35  1  0
  7  2  1  0
 42 24  1  0
 34 19  1  0
 23 30  1  0
  5  4  1  0
  6 18  1  0
M  CHG  6  39  -1  40  -1  41  -1  47   1  48   1  49   1
M  END
>  <ID>  (2221) 


>  <MOLENAME>  (2221) 
GLYCYRRHIZIC ACID. AMMONIUM SALT

>  <therap>  (2221) 
11beta-hydroxysteroid dehydrogenase inhibitor, antiinflammatory, expectorant, antihaemorrhagic, anti-HIV 

>  <ref>  (2221) 
Helv Chim Acta 4:100 (1921);19:1402 (1936); J Chem Soc 1950:1983; J Lab Clin Med 47:20 (1956); Fitoterapia 55:279 (1984); Antiviral Res 7:127 (1987); 10:289 (1988); 11:255 (1989)

>  <cas#>  (2221) 
1405-86-3

>  <source>  (2221) 
Glycyrrhiza glabra

>  <status>  (2221) 
experimental

>  <tradename>  (2221) 
nan

>  <SMILES>  (2221) 
CC1(C)C2CC[C@@]3(C)C4CC[C@@]5(C)CC[C@](C)(C(=O)O)C[C@H]5C4=CC(=O)C3[C@@]2(C)CC[C@@H]1O[C@@H]1O[C@H](C(=O)O)[C@@H](O[C@@H]2O[C@H](C(=O)O)[C@@H](O)[C@H](O)[C@H]2O)[C@H](O)[C@H]1O

>  <standardized_failed>  (2221) 
False

$$$$

     RDKit          2D

 25 26  0  0  0  0  0  0  0  0999 V2000
    5.5000   -1.4250    0.0000 C   0  0  0  0  0  0  0  0  0  0  0  0
    5.0917   -0.6958    0.0000 C   0  0  0  0  0  0  0  0  0  0  0  0
    4.2708   -0.6958    0.0000 C   0  0  0  0  0  0  0  0  0  0  0  0
    5.0792   -2.1333    0.0000 O   0  0  0  0  0  0  0  0  0  0  0  0
    3.8500   -1.4042    0.0000 C   0  0  0  0  0  0  0  0  0  0  0  0
    4.2583   -2.1250    0.0000 C   0  0  0  0  0  0  0  0  0  0  0  0
    8.6417   -2.6917    0.0000 C   0  0  0  0  0  0  0  0  0  0  0  0
    9.3542   -3.1042    0.0000 O   0  0  0  0  0  0  0  0  0  0  0  0
    6.3208   -1.4250    0.0000 O   0  0  0  0  0  0  0  0  0  0  0  0
    7.2167   -1.8625    0.0000 C   0  0  0  0  0  0  0  0  0  0  0  0
    7.9292   -3.1042    0.0000 C   0  0  0  0  0  0  0  0  0  0  0  0
    8.6417   -1.8667    0.0000 C   0  0  0  0  0  0  0  0  0  0  0  0
   10.0667   -2.6917    0.0000 C   0  0  0  0  0  0  0  0  0  0  0  0
    7.2167   -2.6875    0.0000 C   0  0  0  0  0  0  0  0  0  0  0  0
    9.3542   -1.4500    0.0000 C   0  0  0  0  0  0  0  0  0  0  0  0
    7.9292   -1.4500    0.0000 C   0  0  0  0  0  0  0  0  0  0  0  0
   10.0667   -1.8625    0.0000 C   0  0  0  0  0  0  0  0  0  0  0  0
   10.7917   -3.1000    0.0000 O   0  0  0  0  0  0  0  0  0  0  0  0
    5.5125    0.0125    0.0000 O   0  0  0  0  0  0  0  0  0  0  0  0
    3.8625    0.0292    0.0000 O   0  0  0  0  0  0  0  0  0  0  0  0
    3.0292   -1.3958    0.0000 O   0  0  0  0  0  0  0  0  0  0  0  0
    6.5042   -3.1000    0.0000 O   0  0  0  0  0  0  0  0  0  0  0  0
    3.8375   -2.8333    0.0000 C   0  0  0  0  0  0  0  0  0  0  0  0
    3.0333   -2.6750    0.0000 O   0  0  0  0  0  0  0  0  0  0  0  0
    1.1250   -1.8667    0.0000 O   0  0  0  0  0  0  0  0  0  0  0  0
  2  1  1  0
  3  2  1  0
  4  1  1  0
  5  6  1  0
  6  4  1  0
  7 12  2  0
  8  7  1  0
  1  9  1  6
 10  9  1  0
 11 14  2  0
 12 16  1  0
 13 17  1  0
 14 10  1  0
 15 12  1  0
 16 10  2  0
 17 15  2  0
 18 13  2  0
  2 19  1  1
  3 20  1  6
  5 21  1  1
 22 14  1  0
  6 23  1  6
 24 23  1  0
  3  5  1  0
 11  7  1  0
 13  8  1  0
M  END
>  <ID>  (2222) 


>  <MOLENAME>  (2222) 
ESCULIN MONOHYDRATE

>  <therap>  (2222) 
antiinflammatory

>  <ref>  (2222) 
Naturwiss 29: 650 (1941); Phytochemistry 11: 657 (1972); Contact Dermatitis 6:150 (1980)

>  <cas#>  (2222) 
531-75-9

>  <source>  (2222) 
Actinidia spp, Aesculus hippocastanum, Fraxinus spp

>  <status>  (2222) 
experimental

>  <tradename>  (2222) 
ESCOSYL

>  <SMILES>  (2222) 
O=c1ccc2c(cc(O)c(O[C@@H]3O[C@H](CO)[C@@H](O)[C@H](O)[C@H]3O)c2)o1

>  <standardized_failed>  (2222) 
False

$$$$

     RDKit          2D

 14 16  0  0  0  0  0  0  0  0999 V2000
    5.1167   -2.2625    0.0000 C   0  0  0  0  0  0  0  0  0  0  0  0
    5.1167   -3.0875    0.0000 C   0  0  0  0  0  0  0  0  0  0  0  0
    5.9000   -3.3417    0.0000 C   0  0  0  0  0  0  0  0  0  0  0  0
    5.9000   -2.0042    0.0000 C   0  0  0  0  0  0  0  0  0  0  0  0
    6.3792   -2.6792    0.0000 O   0  0  0  0  0  0  0  0  0  0  0  0
    4.3292   -2.0042    0.0000 C   0  0  0  0  0  0  0  0  0  0  0  0
    4.3292   -3.3417    0.0000 C   0  0  0  0  0  0  0  0  0  0  0  0
    3.8500   -2.6792    0.0000 O   0  0  0  0  0  0  0  0  0  0  0  0
    6.1542   -4.1292    0.0000 O   0  0  0  0  0  0  0  0  0  0  0  0
    6.1542   -1.2167    0.0000 O   0  0  0  0  0  0  0  0  0  0  0  0
    3.2375   -1.9917    0.0000 C   0  0  0  0  0  0  0  0  0  0  0  0
    3.2667   -3.3417    0.0000 C   0  0  0  0  0  0  0  0  0  0  0  0
    4.9417   -3.8917    0.0000 C   0  0  0  0  0  0  0  0  0  0  0  0
    4.9417   -1.4542    0.0000 C   0  0  0  0  0  0  0  0  0  0  0  0
  2  1  1  0
  3  2  1  0
  4  1  1  0
  5  4  1  0
  6  1  1  0
  7  2  1  0
  8  6  1  0
  9  3  2  0
 10  4  2  0
 11  6  1  0
 12 11  1  0
  2 13  1  6
  1 14  1  6
  7  8  1  0
  3  5  1  0
  7 12  1  0
M  END
>  <ID>  (2223) 


>  <MOLENAME>  (2223) 
CANTHARIDIN

>  <therap>  (2223) 
irritant

>  <ref>  (2223) 
J Am Chem Soc 63: 3167 (1941)

>  <cas#>  (2223) 
56-25-7

>  <source>  (2223) 
active principle of cantharides and other insects

>  <status>  (2223) 
experimental

>  <tradename>  (2223) 
nan

>  <SMILES>  (2223) 
C[C@]12C(=O)OC(=O)[C@@]1(C)C1CCC2O1

>  <standardized_failed>  (2223) 
False

$$$$

     RDKit          2D

 16 17  0  0  0  0  0  0  0  0999 V2000
    5.4667   -3.8292    0.0000 N   0  0  0  0  0  0  0  0  0  0  0  0
    4.7542   -3.4167    0.0000 C   0  0  0  0  0  0  0  0  0  0  0  0
    6.1917   -3.4125    0.0000 C   0  0  0  0  0  0  0  0  0  0  0  0
    4.7542   -2.5875    0.0000 N   0  0  0  0  0  0  0  0  0  0  0  0
    6.1875   -2.5875    0.0000 C   0  0  0  0  0  0  0  0  0  0  0  0
    5.4667   -2.1750    0.0000 C   0  0  0  0  0  0  0  0  0  0  0  0
    6.9667   -2.3250    0.0000 N   0  0  0  0  0  0  0  0  0  0  0  0
    6.9792   -3.6625    0.0000 N   0  0  0  0  0  0  0  0  0  0  0  0
    7.4625   -2.9917    0.0000 C   0  0  0  0  0  0  0  0  0  0  0  0
    5.4750   -4.6542    0.0000 C   0  0  0  0  0  0  0  0  0  0  0  0
    4.0417   -3.8292    0.0000 O   0  0  0  0  0  0  0  0  0  0  0  0
    5.4667   -1.3500    0.0000 O   0  0  0  0  0  0  0  0  0  0  0  0
    4.0417   -2.1792    0.0000 C   0  0  0  0  0  0  0  0  0  0  0  0
    4.7542   -5.0667    0.0000 C   0  0  0  0  0  0  0  0  0  0  0  0
    4.7625   -5.8917    0.0000 C   0  0  0  0  0  0  0  0  0  0  0  0
    4.0417   -4.6542    0.0000 C   0  0  0  0  0  0  0  0  0  0  0  0
  2  1  1  0
  3  1  1  0
  4  2  1  0
  5  3  2  0
  6  5  1  0
  7  5  1  0
  8  3  1  0
  9  8  1  0
 10  1  1  0
 11  2  2  0
 12  6  2  0
 13  4  1  0
 14 10  1  0
 15 14  1  0
 16 14  1  0
  7  9  2  0
  4  6  1  0
M  END
>  <ID>  (2224) 


>  <MOLENAME>  (2224) 
3-ISOBUTYL-1-METHYLXANTHINE (IBMX)

>  <therap>  (2224) 
phosphodiesterase inhibitor

>  <ref>  (2224) 
nan

>  <cas#>  (2224) 
28822-58-4

>  <source>  (2224) 
synthetic

>  <status>  (2224) 
experimental

>  <tradename>  (2224) 
nan

>  <SMILES>  (2224) 
CC(C)Cn1c(=O)n(C)c(=O)c2c1[nH]cn2

>  <standardized_failed>  (2224) 
False

$$$$

     RDKit          2D

 31 36  0  0  0  0  0  0  0  0999 V2000
    1.4375   -1.3792    0.0000 C   0  0  0  0  0  0  0  0  0  0  0  0
    2.1042   -1.8667    0.0000 C   0  0  0  0  0  0  0  0  0  0  0  0
    2.9875   -1.0625    0.0000 C   0  0  0  0  0  0  0  0  0  0  0  0
    0.7667   -1.8667    0.0000 C   0  0  0  0  0  0  0  0  0  0  0  0
    1.0250   -2.6542    0.0000 C   0  0  0  0  0  0  0  0  0  0  0  0
    2.8750   -0.0292    0.0000 C   0  0  0  0  0  0  0  0  0  0  0  0
    2.2542   -1.3792    0.0000 C   0  0  0  0  0  0  0  0  0  0  0  0
    2.8917   -2.8042    0.0000 C   0  0  0  0  0  0  0  0  0  0  0  0
    2.0167   -0.2500    0.0000 O   0  0  0  0  0  0  0  0  0  0  0  0
    1.8500   -2.6542    0.0000 C   0  0  0  0  0  0  0  0  0  0  0  0
    3.7542   -1.3125    0.0000 C   0  0  0  0  0  0  0  0  0  0  0  0
    2.8292   -1.9292    0.0000 O   0  0  0  0  0  0  0  0  0  0  0  0
    0.3542   -3.1375    0.0000 O   0  0  0  0  0  0  0  0  0  0  0  0
   -0.0583   -1.8625    0.0000 C   0  0  0  0  0  0  0  0  0  0  0  0
    3.4250    0.6875    0.0000 O   0  0  0  0  0  0  0  0  0  0  0  0
   -0.3125   -2.6417    0.0000 C   0  0  0  0  0  0  0  0  0  0  0  0
    3.5375   -2.1042    0.0000 C   0  0  0  0  0  0  0  0  0  0  0  0
    4.0167    0.1583    0.0000 C   0  0  0  0  0  0  0  0  0  0  0  0
    4.0167   -0.7500    0.0000 C   0  0  0  0  0  0  0  0  0  0  0  0
    4.5500   -1.5250    0.0000 C   0  0  0  0  0  0  0  0  0  0  0  0
    2.3000   -0.7792    0.0000 O   0  0  0  0  0  0  0  0  0  0  0  0
   -1.1000   -2.9000    0.0000 O   0  0  0  0  0  0  0  0  0  0  0  0
    4.6750    0.5958    0.0000 O   0  0  0  0  0  0  0  0  0  0  0  0
    0.5292   -1.0750    0.0000 O   0  0  0  0  0  0  0  0  0  0  0  0
    1.9542   -3.2792    0.0000 O   0  0  0  0  0  0  0  0  0  0  0  0
    4.2500   -2.5167    0.0000 O   0  0  0  0  0  0  0  0  0  0  0  0
    4.4875   -0.5292    0.0000 O   0  0  0  0  0  0  0  0  0  0  0  0
   -0.8583   -1.6417    0.0000 C   0  0  0  0  0  0  0  0  0  0  0  0
    5.1292   -0.9375    0.0000 C   0  0  0  0  0  0  0  0  0  0  0  0
    5.3417   -1.7375    0.0000 C   0  0  0  0  0  0  0  0  0  0  0  0
    4.7625   -2.3167    0.0000 C   0  0  0  0  0  0  0  0  0  0  0  0
  2  1  1  0
  3  2  1  6
  1  4  1  0
  5  4  1  0
  6  9  1  6
  7  1  1  0
  8  2  1  0
  1  9  1  1
 10  2  1  0
  3 11  1  0
  7 12  1  0
 13  5  1  0
 14  4  1  0
  6 15  1  0
 16 14  1  0
 17  8  1  0
 18 15  1  0
  3 19  1  0
 11 20  1  6
 21  7  2  0
 22 16  2  0
 23 18  2  0
  4 24  1  1
 10 25  1  1
 17 26  1  1
 19 27  1  6
 14 28  1  1
 29 20  1  0
 30 20  1  0
 31 20  1  0
  3  6  1  0
  8 12  1  1
 10  5  1  0
 13 16  1  0
 17 11  1  0
 18 19  1  0
M  END
>  <ID>  (2225) 


>  <MOLENAME>  (2225) 
GINKGOLIDE A

>  <therap>  (2225) 
antibacterial

>  <ref>  (2225) 
J Am Chem Soc 93: 3546 (1971)

>  <cas#>  (2225) 
15291-75-5

>  <source>  (2225) 
Ginkgo biloba

>  <status>  (2225) 
experimental

>  <tradename>  (2225) 
nan

>  <SMILES>  (2225) 
C[C@@H]1C(=O)OC2[C@H](O)C34[C@@H]5OC(=O)[C@@]3(O[C@@H]3OC(=O)[C@H](O)[C@@]34[C@H](C(C)(C)C)[C@H]5O)[C@]21O

>  <standardized_failed>  (2225) 
False

$$$$

     RDKit          2D

 18 20  0  0  0  0  0  0  0  0999 V2000
    3.9292   -0.9542    0.0000 C   0  0  0  0  0  0  0  0  0  0  0  0
    3.9292   -0.1292    0.0000 C   0  0  0  0  0  0  0  0  0  0  0  0
    3.2167   -1.3667    0.0000 C   0  0  0  0  0  0  0  0  0  0  0  0
    3.2167    0.2833    0.0000 O   0  0  0  0  0  0  0  0  0  0  0  0
    2.5042   -0.9542    0.0000 C   0  0  0  0  0  0  0  0  0  0  0  0
    2.5042   -0.1292    0.0000 C   0  0  0  0  0  0  0  0  0  0  0  0
    4.6542    0.2833    0.0000 C   0  0  0  0  0  0  0  0  0  0  0  0
    3.2167   -2.1917    0.0000 O   0  0  0  0  0  0  0  0  0  0  0  0
    4.6417   -1.3667    0.0000 O   0  0  0  0  0  0  0  0  0  0  0  0
    1.7917   -1.3667    0.0000 C   0  0  0  0  0  0  0  0  0  0  0  0
    1.7917    0.2833    0.0000 C   0  0  0  0  0  0  0  0  0  0  0  0
    4.6542    1.0958    0.0000 C   0  0  0  0  0  0  0  0  0  0  0  0
    5.3667   -0.1417    0.0000 C   0  0  0  0  0  0  0  0  0  0  0  0
    1.0792   -0.9542    0.0000 C   0  0  0  0  0  0  0  0  0  0  0  0
    1.0792   -0.1292    0.0000 C   0  0  0  0  0  0  0  0  0  0  0  0
    6.0792    0.2708    0.0000 C   0  0  0  0  0  0  0  0  0  0  0  0
    5.3667    1.5083    0.0000 C   0  0  0  0  0  0  0  0  0  0  0  0
    6.0792    1.0958    0.0000 C   0  0  0  0  0  0  0  0  0  0  0  0
  2  1  2  0
  3  1  1  0
  4  2  1  0
  5  3  1  0
  6  5  2  0
  7  2  1  0
  8  3  2  0
  9  1  1  0
 10  5  1  0
 11  6  1  0
 12  7  2  0
 13  7  1  0
 14 10  2  0
 15 14  1  0
 16 13  2  0
 17 12  1  0
 18 16  1  0
  6  4  1  0
 11 15  2  0
 17 18  2  0
M  END
>  <ID>  (2226) 


>  <MOLENAME>  (2226) 
3-HYDROXYFLAVONE

>  <therap>  (2226) 
nan

>  <ref>  (2226) 
nan

>  <cas#>  (2226) 
577-85-5

>  <source>  (2226) 
cabbage

>  <status>  (2226) 
undetermined activity

>  <tradename>  (2226) 
nan

>  <SMILES>  (2226) 
O=c1c(O)c(-c2ccccc2)oc2c1cccc2

>  <standardized_failed>  (2226) 
False

$$$$

     RDKit          2D

 14 14  0  0  0  0  0  0  0  0999 V2000
    3.2292   -3.0417    0.0000 C   0  0  0  0  0  0  0  0  0  0  0  0
    2.5042   -1.7917    0.0000 N   0  0  0  0  0  0  0  0  0  0  0  0
    3.2292   -2.2042    0.0000 C   0  0  0  0  0  0  0  0  0  0  0  0
    1.8000   -3.0417    0.0000 C   0  0  0  0  0  0  0  0  0  0  0  0
    3.2292   -0.5417    0.0000 C   0  0  0  0  0  0  0  0  0  0  0  0
    2.5042   -3.4542    0.0000 C   0  0  0  0  0  0  0  0  0  0  0  0
    3.9542   -0.9667    0.0000 C   0  0  0  0  0  0  0  0  0  0  0  0
    1.8000   -2.2042    0.0000 C   0  0  0  0  0  0  0  0  0  0  0  0
    2.5042   -0.9667    0.0000 C   0  0  0  0  0  0  0  0  0  0  0  0
    4.6750   -0.5500    0.0000 O   0  0  0  0  0  0  0  0  0  0  0  0
    2.5042   -4.2792    0.0000 O   0  0  0  0  0  0  0  0  0  0  0  0
    3.1875    0.0708    0.0000 N   0  0  0  0  0  0  0  0  0  0  0  0
    3.9500   -3.4542    0.0000 O   0  0  0  0  0  0  0  0  0  0  0  0
    3.9542   -1.7917    0.0000 O   0  0  0  0  0  0  0  0  0  0  0  0
  2  3  1  0
  3  1  2  0
  4  6  1  0
  5  9  1  0
  6  1  1  0
  7  5  1  0
  8  4  2  0
  9  2  1  0
 10  7  2  0
 11  6  2  0
 12  5  1  0
 13  1  1  0
 14  7  1  0
  8  2  1  0
M  END
>  <ID>  (2227) 


>  <MOLENAME>  (2227) 
MIMOSINE

>  <therap>  (2227) 
depilatory agent

>  <ref>  (2227) 
Z Physiol Chem 244: 153 (1936)

>  <cas#>  (2227) 
nan

>  <source>  (2227) 
Mimosa and Leucena spp

>  <status>  (2227) 
experimental

>  <tradename>  (2227) 
nan

>  <SMILES>  (2227) 
NC(Cn1ccc(=O)c(O)c1)C(=O)O

>  <standardized_failed>  (2227) 
False

$$$$

     RDKit          2D

 19 21  0  0  0  0  0  0  0  0999 V2000
    6.5417   -3.2292    0.0000 C   0  0  0  0  0  0  0  0  0  0  0  0
    6.5417   -4.0542    0.0000 C   0  0  0  0  0  0  0  0  0  0  0  0
    5.8250   -2.8167    0.0000 O   0  0  0  0  0  0  0  0  0  0  0  0
    5.1125   -3.2292    0.0000 C   0  0  0  0  0  0  0  0  0  0  0  0
    5.8250   -4.4667    0.0000 C   0  0  0  0  0  0  0  0  0  0  0  0
    5.1125   -4.0542    0.0000 C   0  0  0  0  0  0  0  0  0  0  0  0
    7.2542   -2.8167    0.0000 C   0  0  0  0  0  0  0  0  0  0  0  0
    4.4000   -2.8167    0.0000 C   0  0  0  0  0  0  0  0  0  0  0  0
    4.4000   -4.4667    0.0000 C   0  0  0  0  0  0  0  0  0  0  0  0
    5.8250   -5.2917    0.0000 O   0  0  0  0  0  0  0  0  0  0  0  0
    7.2542   -1.9917    0.0000 C   0  0  0  0  0  0  0  0  0  0  0  0
    3.6792   -3.2292    0.0000 C   0  0  0  0  0  0  0  0  0  0  0  0
    3.6792   -4.0542    0.0000 C   0  0  0  0  0  0  0  0  0  0  0  0
    6.5375   -1.5667    0.0000 O   0  0  0  0  0  0  0  0  0  0  0  0
    2.9625   -2.8125    0.0000 O   0  0  0  0  0  0  0  0  0  0  0  0
    7.9667   -3.2292    0.0000 C   0  0  0  0  0  0  0  0  0  0  0  0
    7.9667   -1.5792    0.0000 C   0  0  0  0  0  0  0  0  0  0  0  0
    8.6875   -2.8167    0.0000 C   0  0  0  0  0  0  0  0  0  0  0  0
    8.6875   -1.9917    0.0000 C   0  0  0  0  0  0  0  0  0  0  0  0
  2  1  2  0
  3  1  1  0
  4  3  1  0
  5  2  1  0
  6  4  2  0
  7  1  1  0
  8  4  1  0
  9  6  1  0
 10  5  2  0
 11  7  2  0
 12  8  2  0
 13 12  1  0
 14 11  1  0
 15 12  1  0
 16  7  1  0
 17 11  1  0
 18 16  2  0
 19 18  1  0
  6  5  1  0
 19 17  2  0
  9 13  2  0
M  END
>  <ID>  (2228) 


>  <MOLENAME>  (2228) 
7.2'-DIHYDROXYFLAVONE

>  <therap>  (2228) 
antihaemorrhagic

>  <ref>  (2228) 
nan

>  <cas#>  (2228) 
77298-66-9

>  <source>  (2228) 
Primula spp

>  <status>  (2228) 
experimental

>  <tradename>  (2228) 
nan

>  <SMILES>  (2228) 
O=c1cc(-c2c(O)cccc2)oc2c1ccc(O)c2

>  <standardized_failed>  (2228) 
False

$$$$

     RDKit          2D

 47 51  0  0  0  0  0  0  0  0999 V2000
    6.4500   -1.8667    0.0000 C   0  0  0  0  0  0  0  0  0  0  0  0
    5.7375   -1.4542    0.0000 C   0  0  0  0  0  0  0  0  0  0  0  0
    6.4500   -2.6917    0.0000 O   0  0  0  0  0  0  0  0  0  0  0  0
    5.0167   -1.8667    0.0000 C   0  0  0  0  0  0  0  0  0  0  0  0
    7.1542   -5.5667    0.0000 C   0  0  0  0  0  0  0  0  0  0  0  0
    7.1625   -6.3917    0.0000 C   0  0  0  0  0  0  0  0  0  0  0  0
    7.1667   -1.4542    0.0000 C   0  0  0  0  0  0  0  0  0  0  0  0
    5.7417   -0.6292    0.0000 C   0  0  0  0  0  0  0  0  0  0  0  0
    6.4417   -4.3375    0.0000 C   0  0  0  0  0  0  0  0  0  0  0  0
    4.3042   -1.4500    0.0000 N   0  0  0  0  0  0  0  0  0  0  0  0
    7.8667   -6.8042    0.0000 N   0  0  0  0  0  0  0  0  0  0  0  0
    6.4417   -5.1542    0.0000 C   0  0  0  0  0  0  0  0  0  0  0  0
    7.8667   -5.1625    0.0000 C   0  0  0  0  0  0  0  0  0  0  0  0
    6.4417   -6.8125    0.0000 C   0  0  0  0  0  0  0  0  0  0  0  0
    7.1667   -0.6292    0.0000 C   0  0  0  0  0  0  0  0  0  0  0  0
    6.4500   -0.2167    0.0000 C   0  0  0  0  0  0  0  0  0  0  0  0
    5.7292   -6.4000    0.0000 C   0  0  0  0  0  0  0  0  0  0  0  0
    7.1625   -3.9250    0.0000 C   0  0  0  0  0  0  0  0  0  0  0  0
    3.5917   -5.1625    0.0000 O   0  0  0  0  0  0  0  0  0  0  0  0
    5.0167   -6.8125    0.0000 C   0  0  0  0  0  0  0  0  0  0  0  0
    7.8750   -4.3417    0.0000 C   0  0  0  0  0  0  0  0  0  0  0  0
    4.3042   -6.4000    0.0000 C   0  0  0  0  0  0  0  0  0  0  0  0
    5.0167   -2.6917    0.0000 C   0  0  0  0  0  0  0  0  0  0  0  0
    4.3042   -5.5750    0.0000 C   0  0  0  0  0  0  0  0  0  0  0  0
    5.0292   -0.2167    0.0000 C   0  0  0  0  0  0  0  0  0  0  0  0
    4.3125   -0.6250    0.0000 C   0  0  0  0  0  0  0  0  0  0  0  0
    8.5792   -6.4000    0.0000 C   0  0  0  0  0  0  0  0  0  0  0  0
    3.5917   -4.3375    0.0000 C   0  0  0  0  0  0  0  0  0  0  0  0
    8.5875   -5.5750    0.0000 C   0  0  0  0  0  0  0  0  0  0  0  0
    4.3042   -3.1042    0.0000 C   0  0  0  0  0  0  0  0  0  0  0  0
    5.7292   -5.5667    0.0000 C   0  0  0  0  0  0  0  0  0  0  0  0
    4.3042   -3.9292    0.0000 C   0  0  0  0  0  0  0  0  0  0  0  0
    7.8792   -1.8667    0.0000 O   0  0  0  0  0  0  0  0  0  0  0  0
    5.0167   -5.1625    0.0000 C   0  0  0  0  0  0  0  0  0  0  0  0
    7.8792   -0.2125    0.0000 O   0  0  0  0  0  0  0  0  0  0  0  0
    5.0125   -7.6375    0.0000 O   0  0  0  0  0  0  0  0  0  0  0  0
    7.1542   -3.1000    0.0000 O   0  0  0  0  0  0  0  0  0  0  0  0
    9.6667   -7.1167    0.0000 Cl  0  0  0  0  0  0  0  0  0  0  0  0
    2.4875   -1.0000    0.0000 Cl  0  0  0  0  0  0  0  0  0  0  0  0
    3.5917   -1.8542    0.0000 C   0  0  0  0  0  0  0  0  0  0  0  0
    7.8667   -7.6292    0.0000 C   0  0  0  0  0  0  0  0  0  0  0  0
    2.8792   -3.0917    0.0000 C   0  0  0  0  0  0  0  0  0  0  0  0
    2.8750   -3.9250    0.0000 C   0  0  0  0  0  0  0  0  0  0  0  0
    3.5917   -2.6875    0.0000 C   0  0  0  0  0  0  0  0  0  0  0  0
    8.5917   -1.4625    0.0000 C   0  0  0  0  0  0  0  0  0  0  0  0
    7.8667    0.6125    0.0000 C   0  0  0  0  0  0  0  0  0  0  0  0
    7.8667   -2.6792    0.0000 C   0  0  0  0  0  0  0  0  0  0  0  0
  2  1  1  0
  3  1  1  0
  4  2  1  0
  5 12  1  0
  6  5  1  0
  7  1  2  0
  8  2  2  0
  9  3  1  0
  4 10  1  1
  6 11  1  1
 12  9  2  0
 13 21  1  0
  6 14  1  0
 15  7  1  0
 16 15  2  0
 17 14  1  0
 18  9  1  0
 19 28  1  0
 20 17  2  0
 21 18  2  0
 22 20  1  0
  4 23  1  0
 24 19  1  0
 25  8  1  0
 26 25  1  0
 27 29  1  0
 28 32  2  0
 29 13  1  0
 30 23  1  0
 31 17  1  0
 32 30  1  0
 33  7  1  0
 34 31  2  0
 35 15  1  0
 36 20  1  0
 37 18  1  0
 40 10  1  0
 41 11  1  0
 42 44  1  0
 43 42  2  0
 44 30  2  0
 45 33  1  0
 46 35  1  0
 47 37  1  0
  8 16  1  0
 10 26  1  0
  5 13  2  0
 11 27  1  0
 28 43  1  0
 24 22  2  0
 34 24  1  0
M  END
>  <ID>  (2229) 


>  <MOLENAME>  (2229) 
BERBAMINE HYDROCHLORIDE

>  <therap>  (2229) 
antihypertensive, skeletal muscle relaxant

>  <ref>  (2229) 
J Indian Chem Soc 28: 225 (1951); 30: 705 (1953); Aust J Chem 9: 111 (1956); 25: 2251 (1972); J Chem Soc 1965: 2239

>  <cas#>  (2229) 
478-61-5 (berbamine)

>  <source>  (2229) 
Berberis spp

>  <status>  (2229) 
experimental

>  <tradename>  (2229) 
nan

>  <SMILES>  (2229) 
COc1cc2c3cc1Oc1c(OC)c(OC)cc4c1[C@@H](Cc1cccc(c1)Oc1cc(O)c(cc1)C[C@@H]3N(C)CC2)N(C)CC4

>  <standardized_failed>  (2229) 
False

$$$$

     RDKit          2D

 18 17  0  0  0  0  0  0  0  0999 V2000
    6.5333   -2.4667    0.0000 C   0  0  0  0  0  0  0  0  0  0  0  0
    5.7542   -2.7208    0.0000 N   0  0  0  0  0  0  0  0  0  0  0  0
    6.5333   -1.6417    0.0000 C   0  0  0  0  0  0  0  0  0  0  0  0
    5.2708   -2.0458    0.0000 C   0  0  0  0  0  0  0  0  0  0  0  0
    5.7542   -1.3833    0.0000 C   0  0  0  0  0  0  0  0  0  0  0  0
    7.2458   -2.8792    0.0000 C   0  0  0  0  0  0  0  0  0  0  0  0
    7.9667   -2.4667    0.0000 N   0  0  0  0  0  0  0  0  0  0  0  0
    4.4458   -1.9583    0.0000 C   0  0  0  0  0  0  0  0  0  0  0  0
    5.4167   -0.6333    0.0000 C   0  0  0  0  0  0  0  0  0  0  0  0
    4.1083   -1.2083    0.0000 C   0  0  0  0  0  0  0  0  0  0  0  0
    7.2458   -1.2292    0.0000 C   0  0  0  0  0  0  0  0  0  0  0  0
    7.9667   -1.6417    0.0000 C   0  0  0  0  0  0  0  0  0  0  0  0
    4.5958   -0.5458    0.0000 C   0  0  0  0  0  0  0  0  0  0  0  0
    3.2833   -1.1167    0.0000 O   0  0  0  0  0  0  0  0  0  0  0  0
    7.2458   -3.7042    0.0000 C   0  0  0  0  0  0  0  0  0  0  0  0
    8.8708   -3.3708    0.0000 Cl  0  0  0  0  0  0  0  0  0  0  0  0
    9.9292   -1.1208    0.0000 O   0  0  0  0  0  0  0  0  0  0  0  0
   10.6792   -1.9667    0.0000 O   0  0  0  0  0  0  0  0  0  0  0  0
  2  1  1  0
  3  1  2  0
  4  2  1  0
  5  3  1  0
  6  1  1  0
  7  6  2  0
  8  4  2  0
  9  5  2  0
 10  8  1  0
 11  3  1  0
 12  7  1  0
 13  9  1  0
 14 10  1  0
 15  6  1  0
  5  4  1  0
 12 11  1  0
 13 10  2  0
M  END
>  <ID>  (2230) 


>  <MOLENAME>  (2230) 
HARMALOL HYDROCHLORIDE DIHYDRATE

>  <therap>  (2230) 
anthelmintic, narcotic agent

>  <ref>  (2230) 
Biochem J 27: 727 (1933); Phytochemistry 19: 1573 (1980)

>  <cas#>  (2230) 
6028-07-5

>  <source>  (2230) 
Peganium harmala

>  <status>  (2230) 
experimental

>  <tradename>  (2230) 
nan

>  <SMILES>  (2230) 
CC1=NCCc2c1[nH]c1cc(O)ccc21

>  <standardized_failed>  (2230) 
False

$$$$

     RDKit          2D

 18 19  0  0  0  0  0  0  0  0999 V2000
    3.2250   -0.2292    0.0000 C   0  0  0  0  0  0  0  0  0  0  0  0
    3.2250    0.6000    0.0000 C   0  0  0  0  0  0  0  0  0  0  0  0
    2.5042   -0.6417    0.0000 C   0  0  0  0  0  0  0  0  0  0  0  0
    2.5042    1.0208    0.0000 C   0  0  0  0  0  0  0  0  0  0  0  0
    1.7917   -0.2167    0.0000 C   0  0  0  0  0  0  0  0  0  0  0  0
    1.7917    0.6000    0.0000 C   0  0  0  0  0  0  0  0  0  0  0  0
    3.9375   -0.6417    0.0000 C   0  0  0  0  0  0  0  0  0  0  0  0
    3.9375   -1.4667    0.0000 C   0  0  0  0  0  0  0  0  0  0  0  0
    2.5042   -1.4667    0.0000 O   0  0  0  0  0  0  0  0  0  0  0  0
    2.5042    1.8458    0.0000 O   0  0  0  0  0  0  0  0  0  0  0  0
    4.6500   -1.8792    0.0000 C   0  0  0  0  0  0  0  0  0  0  0  0
    3.9417    1.0083    0.0000 O   0  0  0  0  0  0  0  0  0  0  0  0
    1.0792   -0.6417    0.0000 C   0  0  0  0  0  0  0  0  0  0  0  0
    1.0792    1.0125    0.0000 C   0  0  0  0  0  0  0  0  0  0  0  0
    5.3667   -1.4667    0.0000 C   0  0  0  0  0  0  0  0  0  0  0  0
    4.6417   -2.7042    0.0000 C   0  0  0  0  0  0  0  0  0  0  0  0
    0.3667    0.6000    0.0000 C   0  0  0  0  0  0  0  0  0  0  0  0
    0.3667   -0.2292    0.0000 C   0  0  0  0  0  0  0  0  0  0  0  0
  2  1  2  0
  3  1  1  0
  4  2  1  0
  5  3  1  0
  6  5  2  0
  7  1  1  0
  8  7  1  0
  9  3  2  0
 10  4  2  0
 11  8  2  0
 12  2  1  0
 13  5  1  0
 14  6  1  0
 15 11  1  0
 16 11  1  0
 17 18  1  0
 18 13  2  0
  6  4  1  0
 14 17  2  0
M  END
>  <ID>  (2231) 


>  <MOLENAME>  (2231) 
LAPACHOL

>  <therap>  (2231) 
antineoplastic, antifungal

>  <ref>  (2231) 
Phytochemistry 14: 1829 (1975)

>  <cas#>  (2231) 
84-79-7

>  <source>  (2231) 
heartwood of Bignoniaceae

>  <status>  (2231) 
experimental

>  <tradename>  (2231) 
nan

>  <SMILES>  (2231) 
CC(C)=CCC1=C(O)C(=O)c2c(cccc2)C1=O

>  <standardized_failed>  (2231) 
False

$$$$

     RDKit          2D

 32 36  0  0  0  0  0  0  0  0999 V2000
    6.8000   -4.2792    0.0000 C   0  0  0  0  0  0  0  0  0  0  0  0
    6.0875   -4.6917    0.0000 C   0  0  0  0  0  0  0  0  0  0  0  0
    4.6542   -4.6917    0.0000 C   0  0  0  0  0  0  0  0  0  0  0  0
    6.8000   -3.4542    0.0000 C   0  0  0  0  0  0  0  0  0  0  0  0
    5.3667   -4.2792    0.0000 C   0  0  0  0  0  0  0  0  0  0  0  0
    4.6542   -5.5167    0.0000 C   0  0  0  0  0  0  0  0  0  0  0  0
    7.5125   -3.0417    0.0000 C   0  0  0  0  0  0  0  0  0  0  0  0
    3.9417   -5.9292    0.0000 C   0  0  0  0  0  0  0  0  0  0  0  0
    7.6875   -2.2292    0.0000 C   0  0  0  0  0  0  0  0  0  0  0  0
    8.2292   -3.4542    0.0000 C   0  0  0  0  0  0  0  0  0  0  0  0
    6.0875   -5.5167    0.0000 C   0  0  0  0  0  0  0  0  0  0  0  0
    7.5125   -4.6917    0.0000 C   0  0  0  0  0  0  0  0  0  0  0  0
    6.0875   -3.0417    0.0000 C   0  0  0  0  0  0  0  0  0  0  0  0
    3.9417   -4.2792    0.0000 C   0  0  0  0  0  0  0  0  0  0  0  0
    5.3667   -3.4542    0.0000 C   0  0  0  0  0  0  0  0  0  0  0  0
    5.3750   -5.9292    0.0000 C   0  0  0  0  0  0  0  0  0  0  0  0
    7.1417   -1.6167    0.0000 C   0  0  0  0  0  0  0  0  0  0  0  0
    8.5042   -2.1500    0.0000 C   0  0  0  0  0  0  0  0  0  0  0  0
    3.2250   -5.5167    0.0000 C   0  0  0  0  0  0  0  0  0  0  0  0
    8.2292   -4.2792    0.0000 C   0  0  0  0  0  0  0  0  0  0  0  0
    8.8417   -2.8917    0.0000 C   0  0  0  0  0  0  0  0  0  0  0  0
    3.2250   -4.6917    0.0000 C   0  0  0  0  0  0  0  0  0  0  0  0
    6.3375   -1.7792    0.0000 C   0  0  0  0  0  0  0  0  0  0  0  0
    6.8000   -5.1042    0.0000 C   0  0  0  0  0  0  0  0  0  0  0  0
    6.0792   -3.9042    0.0000 C   0  0  0  0  0  0  0  0  0  0  0  0
    4.6125   -3.9292    0.0000 C   0  0  0  0  0  0  0  0  0  0  0  0
    4.5000   -6.5500    0.0000 C   0  0  0  0  0  0  0  0  0  0  0  0
    3.5250   -6.6542    0.0000 C   0  0  0  0  0  0  0  0  0  0  0  0
    2.5042   -5.9417    0.0000 O   0  0  0  0  0  0  0  0  0  0  0  0
    8.8167   -4.0375    0.0000 C   0  0  0  0  0  0  0  0  0  0  0  0
    8.6167   -4.8167    0.0000 O   0  0  0  0  0  0  0  0  0  0  0  0
    7.4042   -0.8375    0.0000 C   0  0  0  0  0  0  0  0  0  0  0  0
  2  1  1  0
  3  5  1  0
  4  1  1  0
  5  2  1  0
  6 16  1  0
  7  4  1  0
  8  6  1  0
  9  7  1  0
 10 20  1  0
 11  2  1  0
 12  1  1  0
  4 13  1  6
 14  3  1  0
 15 13  1  0
 16 11  1  0
  9 17  1  6
 18  9  1  0
 19  8  1  0
 20 12  1  0
 21 10  1  0
 22 14  1  0
 23 17  2  0
  1 24  1  6
  2 25  1  1
  3 26  1  1
 27  8  1  0
 28  8  1  0
 19 29  1  1
 10 30  1  1
 31 30  1  0
 32 17  1  0
 10  7  1  0
 15  5  1  0
 18 21  1  0
  6  3  1  0
 19 22  1  0
M  END
>  <ID>  (2232) 


>  <MOLENAME>  (2232) 
BETULIN

>  <therap>  (2232) 
nan

>  <ref>  (2232) 
J Am Chem Soc 78: 2312 (1956)

>  <cas#>  (2232) 
473-98-3

>  <source>  (2232) 
Betula spp

>  <status>  (2232) 
undetermined activity

>  <tradename>  (2232) 
nan

>  <SMILES>  (2232) 
C=C(C)[C@@H]1CC[C@]2(CO)CC[C@]3(C)[C@H](CCC4[C@@]5(C)CC[C@H](O)C(C)(C)C5CC[C@]43C)C12

>  <standardized_failed>  (2232) 
False

$$$$

     RDKit          2D

 21 25  0  0  0  0  0  0  0  0999 V2000
    3.4667   -0.5292    0.0000 C   0  0  0  0  0  0  0  0  0  0  0  0
    3.4250   -1.4250    0.0000 C   0  0  0  0  0  0  0  0  0  0  0  0
    4.1375   -1.8375    0.0000 C   0  0  0  0  0  0  0  0  0  0  0  0
    4.1375   -2.6667    0.0000 C   0  0  0  0  0  0  0  0  0  0  0  0
    4.1792    0.1833    0.0000 O   0  0  0  0  0  0  0  0  0  0  0  0
    4.9917   -0.5292    0.0000 C   0  0  0  0  0  0  0  0  0  0  0  0
    1.9375   -0.5292    0.0000 C   0  0  0  0  0  0  0  0  0  0  0  0
    2.7167   -1.8417    0.0000 C   0  0  0  0  0  0  0  0  0  0  0  0
    3.6542   -2.4042    0.0000 C   0  0  0  0  0  0  0  0  0  0  0  0
    2.7167   -2.6667    0.0000 C   0  0  0  0  0  0  0  0  0  0  0  0
    3.4250   -3.0750    0.0000 C   0  0  0  0  0  0  0  0  0  0  0  0
    1.9375   -1.5917    0.0000 O   0  0  0  0  0  0  0  0  0  0  0  0
    3.1292   -2.3917    0.0000 O   0  0  0  0  0  0  0  0  0  0  0  0
    4.9917   -1.3750    0.0000 C   0  0  0  0  0  0  0  0  0  0  0  0
    3.4250   -3.9000    0.0000 C   0  0  0  0  0  0  0  0  0  0  0  0
    1.3542    0.0583    0.0000 O   0  0  0  0  0  0  0  0  0  0  0  0
    3.7417   -2.0042    0.0000 O   0  0  0  0  0  0  0  0  0  0  0  0
    4.8500   -2.2500    0.0000 O   0  0  0  0  0  0  0  0  0  0  0  0
    4.1375   -1.0042    0.0000 C   0  0  0  0  0  0  0  0  0  0  0  0
    2.7125   -4.3125    0.0000 C   0  0  0  0  0  0  0  0  0  0  0  0
    4.1417   -4.3125    0.0000 C   0  0  0  0  0  0  0  0  0  0  0  0
  2  1  1  0
  3  2  1  0
  4  3  1  0
  1  5  1  6
  6  1  1  0
  7  1  1  0
  8  2  1  0
  4  9  1  1
 10  8  1  0
 11 10  1  0
 12  7  1  0
 10 13  1  1
  6 14  1  6
 11 15  1  6
 16  7  2  0
 17  9  2  0
  3 18  1  6
  2 19  1  6
 20 15  2  0
 21 15  1  0
  6  5  1  0
  8 12  1  1
  3 14  1  0
 13  9  1  0
 11  4  1  0
M  END
>  <ID>  (2233) 


>  <MOLENAME>  (2233) 
PICROTOXININ

>  <therap>  (2233) 
convulsant, GABA receptor antagonist, ichthyotoxin

>  <ref>  (2233) 
JACS 57: 1111 (1935); 79: 5550 (1957); Chem Rev 67: 441 (1967)

>  <cas#>  (2233) 
17617-45-7

>  <source>  (2233) 
Anamirta cocculus, Menispermum cocculus

>  <status>  (2233) 
experimental

>  <tradename>  (2233) 
nan

>  <SMILES>  (2233) 
C=C(C)[C@H]1[C@@H]2C(=O)O[C@H]1[C@H]1OC(=O)[C@@]34O[C@@H]3C[C@]2(O)[C@@]14C

>  <standardized_failed>  (2233) 
False

$$$$

     RDKit          2D

 26 29  0  0  0  0  0  0  0  0999 V2000
    5.2625   -2.3042    0.0000 C   0  0  0  0  0  0  0  0  0  0  0  0
    5.2667   -3.1042    0.0000 C   0  0  0  0  0  0  0  0  0  0  0  0
    3.8917   -3.1125    0.0000 C   0  0  0  0  0  0  0  0  0  0  0  0
    4.5792   -3.5042    0.0000 C   0  0  0  0  0  0  0  0  0  0  0  0
    3.2042   -3.5125    0.0000 C   0  0  0  0  0  0  0  0  0  0  0  0
    5.9500   -1.9042    0.0000 C   0  0  0  0  0  0  0  0  0  0  0  0
    4.5750   -1.9167    0.0000 C   0  0  0  0  0  0  0  0  0  0  0  0
    3.8792   -2.3167    0.0000 C   0  0  0  0  0  0  0  0  0  0  0  0
    6.6292   -3.1042    0.0000 C   0  0  0  0  0  0  0  0  0  0  0  0
    6.6417   -2.3000    0.0000 C   0  0  0  0  0  0  0  0  0  0  0  0
    4.5917   -4.3000    0.0000 C   0  0  0  0  0  0  0  0  0  0  0  0
    8.0792   -0.6500    0.0000 C   0  0  0  0  0  0  0  0  0  0  0  0
    3.2125   -4.3042    0.0000 C   0  0  0  0  0  0  0  0  0  0  0  0
    3.9000   -4.7042    0.0000 C   0  0  0  0  0  0  0  0  0  0  0  0
    8.0750    0.1750    0.0000 O   0  0  0  0  0  0  0  0  0  0  0  0
    5.9417   -1.0792    0.0000 C   0  0  0  0  0  0  0  0  0  0  0  0
    6.6542   -0.6625    0.0000 C   0  0  0  0  0  0  0  0  0  0  0  0
    7.3667   -1.0667    0.0000 C   0  0  0  0  0  0  0  0  0  0  0  0
    5.2542   -1.4792    0.0000 C   0  0  0  0  0  0  0  0  0  0  0  0
    8.8000   -1.0542    0.0000 O   0  0  0  0  0  0  0  0  0  0  0  0
    3.2042   -2.6875    0.0000 C   0  0  0  0  0  0  0  0  0  0  0  0
    2.5167   -3.1167    0.0000 C   0  0  0  0  0  0  0  0  0  0  0  0
    2.5250   -4.7125    0.0000 C   0  0  0  0  0  0  0  0  0  0  0  0
    5.2250   -0.6750    0.0000 C   0  0  0  0  0  0  0  0  0  0  0  0
    1.8292   -3.5167    0.0000 C   0  0  0  0  0  0  0  0  0  0  0  0
    1.8292   -4.3167    0.0000 C   0  0  0  0  0  0  0  0  0  0  0  0
  2  1  1  0
  3  8  1  0
  4  2  1  0
  5  3  1  0
  6  1  1  0
  7  1  1  0
  8  7  1  0
  9  2  1  0
 10  6  1  0
 11  4  1  0
 12 18  1  0
 13  5  1  0
 14 11  1  0
 15 12  2  0
  6 16  1  1
 17 16  1  0
 18 17  1  0
  1 19  1  1
 20 12  1  0
  5 21  1  1
 22  5  1  0
 13 23  1  6
 24 16  1  0
 25 22  1  0
 26 25  1  0
 10  9  1  0
  3  4  1  0
 14 13  1  0
 23 26  1  0
M  END
>  <ID>  (2234) 


>  <MOLENAME>  (2234) 
URSOCHOLANIC ACID

>  <therap>  (2234) 
nan

>  <ref>  (2234) 
Steroids 23:357 (1974)

>  <cas#>  (2234) 
546-18-9

>  <source>  (2234) 
Abrus pecatorius

>  <status>  (2234) 
undetermined activity

>  <tradename>  (2234) 
nan

>  <SMILES>  (2234) 
CC(CCC(=O)O)[C@H]1CCC2C3CC[C@@H]4CCCC[C@]4(C)C3CC[C@@]21C

>  <standardized_failed>  (2234) 
False

$$$$

     RDKit          2D

 28 30  0  0  0  0  0  0  0  0999 V2000
    3.9792   -1.1167    0.0000 N   0  0  0  0  0  0  0  0  0  0  0  0
    3.2667   -1.5292    0.0000 C   0  0  0  0  0  0  0  0  0  0  0  0
    4.7000   -1.5250    0.0000 C   0  0  0  0  0  0  0  0  0  0  0  0
    4.6917   -2.3542    0.0000 C   0  0  0  0  0  0  0  0  0  0  0  0
    2.5542   -1.1167    0.0000 C   0  0  0  0  0  0  0  0  0  0  0  0
    3.9750   -2.7667    0.0000 C   0  0  0  0  0  0  0  0  0  0  0  0
    3.2667   -2.3542    0.0000 C   0  0  0  0  0  0  0  0  0  0  0  0
    5.4167   -2.7667    0.0000 C   0  0  0  0  0  0  0  0  0  0  0  0
    1.8417   -1.5292    0.0000 C   0  0  0  0  0  0  0  0  0  0  0  0
    3.9792   -0.2917    0.0000 C   0  0  0  0  0  0  0  0  0  0  0  0
    2.5542   -0.2917    0.0000 C   0  0  0  0  0  0  0  0  0  0  0  0
    5.4042   -3.6042    0.0000 C   0  0  0  0  0  0  0  0  0  0  0  0
    1.1292   -1.1167    0.0000 C   0  0  0  0  0  0  0  0  0  0  0  0
    3.9667   -3.5917    0.0000 C   0  0  0  0  0  0  0  0  0  0  0  0
    4.6875   -4.0167    0.0000 C   0  0  0  0  0  0  0  0  0  0  0  0
    1.1292   -0.2917    0.0000 C   0  0  0  0  0  0  0  0  0  0  0  0
    1.8417    0.1208    0.0000 C   0  0  0  0  0  0  0  0  0  0  0  0
    3.2667    0.1208    0.0000 C   0  0  0  0  0  0  0  0  0  0  0  0
    4.7167   -0.7292    0.0000 Cl  0  0  0  0  0  0  0  0  0  0  0  0
    0.4167   -1.5292    0.0000 O   0  0  0  0  0  0  0  0  0  0  0  0
    6.1167   -4.0167    0.0000 O   0  0  0  0  0  0  0  0  0  0  0  0
    0.4167    0.1208    0.0000 O   0  0  0  0  0  0  0  0  0  0  0  0
    4.6792   -4.8417    0.0000 O   0  0  0  0  0  0  0  0  0  0  0  0
    5.4125   -1.1125    0.0000 C   0  0  0  0  0  0  0  0  0  0  0  0
    0.4125    0.9458    0.0000 C   0  0  0  0  0  0  0  0  0  0  0  0
    3.9667   -5.2500    0.0000 C   0  0  0  0  0  0  0  0  0  0  0  0
   -0.2958   -1.1167    0.0000 C   0  0  0  0  0  0  0  0  0  0  0  0
    6.1167   -4.8417    0.0000 C   0  0  0  0  0  0  0  0  0  0  0  0
  2  1  1  0
  3  1  2  0
  4  3  1  0
  5  2  1  0
  6  4  2  0
  7  2  2  0
  8  4  1  0
  9  5  2  0
 10  1  1  0
 11 18  1  0
 12  8  2  0
 13  9  1  0
 14  6  1  0
 15 12  1  0
 16 17  1  0
 17 11  2  0
 18 10  2  0
 20 13  1  0
 21 12  1  0
 22 16  1  0
 23 15  1  0
 24  3  1  0
 25 22  1  0
 26 23  1  0
 27 20  1  0
 28 21  1  0
  7  6  1  0
  5 11  1  0
 13 16  2  0
 14 15  2  0
M  CHG  2   1   1  19  -1
M  END
>  <ID>  (2235) 


>  <MOLENAME>  (2235) 
CORALYNE CHLORIDE

>  <therap>  (2235) 
cytostatic, intercalating agent

>  <ref>  (2235) 
Int J Immunopharmacol 6: 587 (1984); Nucleic Acids Res 25: 1890 (1997)

>  <cas#>  (2235) 
38989-38-7

>  <source>  (2235) 
semisynthetic

>  <status>  (2235) 
experimental

>  <tradename>  (2235) 
nan

>  <SMILES>  (2235) 
COc1cc2c(cc1OC)c(C)[n+]1ccc3cc(OC)c(OC)cc3c1c2

>  <standardized_failed>  (2235) 
False

$$$$

     RDKit          2D

 34 36  0  0  0  0  0  0  0  0999 V2000
    8.5167   -5.9667    0.0000 C   0  0  0  0  0  0  0  0  0  0  0  0
    8.2750   -6.7375    0.0000 C   0  0  0  0  0  0  0  0  0  0  0  0
    9.4667   -7.8167    0.0000 C   0  0  0  0  0  0  0  0  0  0  0  0
    8.9125   -3.9667    0.0000 C   0  0  0  0  0  0  0  0  0  0  0  0
    9.4667   -8.6417    0.0000 C   0  0  0  0  0  0  0  0  0  0  0  0
    9.7375   -3.9667    0.0000 C   0  0  0  0  0  0  0  0  0  0  0  0
    7.8417   -5.4667    0.0000 O   0  0  0  0  0  0  0  0  0  0  0  0
    8.4917   -4.6792    0.0000 O   0  0  0  0  0  0  0  0  0  0  0  0
   10.1917   -9.0542    0.0000 C   0  0  0  0  0  0  0  0  0  0  0  0
   10.1417   -3.2417    0.0000 C   0  0  0  0  0  0  0  0  0  0  0  0
    8.7542   -7.4042    0.0000 O   0  0  0  0  0  0  0  0  0  0  0  0
   10.1917   -7.4042    0.0000 O   0  0  0  0  0  0  0  0  0  0  0  0
    8.4917   -3.2417    0.0000 O   0  0  0  0  0  0  0  0  0  0  0  0
    7.4417   -6.7375    0.0000 C   0  0  0  0  0  0  0  0  0  0  0  0
   10.9125   -8.6417    0.0000 C   0  0  0  0  0  0  0  0  0  0  0  0
    9.7375   -2.5250    0.0000 C   0  0  0  0  0  0  0  0  0  0  0  0
    7.1750   -5.9542    0.0000 C   0  0  0  0  0  0  0  0  0  0  0  0
   10.9125   -7.8167    0.0000 C   0  0  0  0  0  0  0  0  0  0  0  0
    8.9125   -2.5250    0.0000 C   0  0  0  0  0  0  0  0  0  0  0  0
    9.0417   -6.3417    0.0000 C   0  0  0  0  0  0  0  0  0  0  0  0
    8.7542   -9.0542    0.0000 O   0  0  0  0  0  0  0  0  0  0  0  0
   10.1417   -4.6792    0.0000 O   0  0  0  0  0  0  0  0  0  0  0  0
   10.1917   -9.8875    0.0000 O   0  0  0  0  0  0  0  0  0  0  0  0
   10.9792   -3.2417    0.0000 O   0  0  0  0  0  0  0  0  0  0  0  0
    6.9625   -7.4042    0.0000 O   0  0  0  0  0  0  0  0  0  0  0  0
   11.6250   -9.0542    0.0000 O   0  0  0  0  0  0  0  0  0  0  0  0
   10.1417   -1.8125    0.0000 O   0  0  0  0  0  0  0  0  0  0  0  0
    6.3875   -5.7042    0.0000 C   0  0  0  0  0  0  0  0  0  0  0  0
   11.6250   -7.4042    0.0000 C   0  0  0  0  0  0  0  0  0  0  0  0
    8.4917   -1.8125    0.0000 C   0  0  0  0  0  0  0  0  0  0  0  0
    9.8542   -6.0292    0.0000 O   0  0  0  0  0  0  0  0  0  0  0  0
   12.2542   -7.9375    0.0000 O   0  0  0  0  0  0  0  0  0  0  0  0
    5.8917   -6.3667    0.0000 O   0  0  0  0  0  0  0  0  0  0  0  0
    9.0292   -1.1792    0.0000 O   0  0  0  0  0  0  0  0  0  0  0  0
  2  1  1  0
  3 11  1  6
  4  8  1  6
  5  3  1  0
  6  4  1  0
  7  1  1  0
  1  8  1  0
  9  5  1  0
 10  6  1  0
  2 11  1  1
 12  3  1  0
 13  4  1  0
 14  2  1  0
 15 18  1  0
 16 19  1  0
 17  7  1  0
 18 12  1  0
 19 13  1  0
  1 20  1  6
  5 21  1  1
  6 22  1  1
  9 23  1  6
 10 24  1  6
 14 25  1  6
 15 26  1  1
 16 27  1  1
 17 28  1  1
 18 29  1  6
 19 30  1  6
 31 20  1  0
 32 29  1  0
 33 28  1  0
 34 30  1  0
 14 17  1  0
 16 10  1  0
 15  9  1  0
M  END
>  <ID>  (2236) 


>  <MOLENAME>  (2236) 
MELEZITOSE

>  <therap>  (2236) 
nan

>  <ref>  (2236) 
J Org Chem 11: 610 (1946)

>  <cas#>  (2236) 
nan

>  <source>  (2236) 
honey & plant exudates

>  <status>  (2236) 
undetermined activity

>  <tradename>  (2236) 
nan

>  <SMILES>  (2236) 
OC[C@H]1O[C@@H](O[C@H]2[C@H](O)[C@@H](CO)O[C@@]2(CO)O[C@@H]2O[C@H](CO)[C@@H](O)[C@H](O)[C@H]2O)[C@H](O)[C@@H](O)[C@@H]1O

>  <standardized_failed>  (2236) 
False

$$$$

     RDKit          2D

 11 11  0  0  0  0  0  0  0  0999 V2000
    1.8667   -0.6167    0.0000 C   0  0  0  0  0  0  0  0  0  0  0  0
    2.2792    0.0958    0.0000 C   0  0  0  0  0  0  0  0  0  0  0  0
    2.6917   -0.6167    0.0000 C   0  0  0  0  0  0  0  0  0  0  0  0
    1.1500   -1.0292    0.0000 C   0  0  0  0  0  0  0  0  0  0  0  0
    0.4375   -0.6167    0.0000 C   0  0  0  0  0  0  0  0  0  0  0  0
    1.6917    0.6833    0.0000 C   0  0  0  0  0  0  0  0  0  0  0  0
    2.8625    0.6833    0.0000 C   0  0  0  0  0  0  0  0  0  0  0  0
    3.4042   -1.0292    0.0000 C   0  0  0  0  0  0  0  0  0  0  0  0
    3.4042   -1.8542    0.0000 O   0  0  0  0  0  0  0  0  0  0  0  0
    0.4292    0.2083    0.0000 C   0  0  0  0  0  0  0  0  0  0  0  0
   -0.2833   -1.0292    0.0000 C   0  0  0  0  0  0  0  0  0  0  0  0
  2  1  1  0
  3  1  1  0
  4  1  1  0
  5  4  2  0
  6  2  1  0
  7  2  1  0
  8  3  1  0
  9  8  1  0
 10  5  1  0
 11  5  1  0
  3  2  1  0
M  END
>  <ID>  (2237) 


>  <MOLENAME>  (2237) 
CHRYSANTHEMYL ALCOHOL

>  <therap>  (2237) 
nan

>  <ref>  (2237) 
nan

>  <cas#>  (2237) 
5617-92-5

>  <source>  (2237) 
reduction product of pyrrethrin constituent

>  <status>  (2237) 
undetermined activity

>  <tradename>  (2237) 
nan

>  <SMILES>  (2237) 
CC(C)=CC1C(CO)C1(C)C

>  <standardized_failed>  (2237) 
False

$$$$

     RDKit          2D

 20 21  0  0  0  0  0  0  0  0999 V2000
    2.1625   -0.2292    0.0000 C   0  0  0  0  0  0  0  0  0  0  0  0
    2.1625    0.5958    0.0000 C   0  0  0  0  0  0  0  0  0  0  0  0
    2.8792   -0.6417    0.0000 C   0  0  0  0  0  0  0  0  0  0  0  0
    1.4500    1.0125    0.0000 C   0  0  0  0  0  0  0  0  0  0  0  0
    2.8750   -1.4667    0.0000 C   0  0  0  0  0  0  0  0  0  0  0  0
    1.4500   -0.6375    0.0000 C   0  0  0  0  0  0  0  0  0  0  0  0
    0.7417    0.5958    0.0000 C   0  0  0  0  0  0  0  0  0  0  0  0
    3.5917   -0.2292    0.0000 O   0  0  0  0  0  0  0  0  0  0  0  0
    3.5792   -1.8750    0.0000 C   0  0  0  0  0  0  0  0  0  0  0  0
    0.7417   -0.2292    0.0000 C   0  0  0  0  0  0  0  0  0  0  0  0
    2.8792    1.0083    0.0000 O   0  0  0  0  0  0  0  0  0  0  0  0
    1.4500    1.8375    0.0000 O   0  0  0  0  0  0  0  0  0  0  0  0
    3.5792   -2.7042    0.0000 C   0  0  0  0  0  0  0  0  0  0  0  0
    0.0250    1.0083    0.0000 O   0  0  0  0  0  0  0  0  0  0  0  0
    2.1542   -1.8750    0.0000 C   0  0  0  0  0  0  0  0  0  0  0  0
    4.2917   -3.1167    0.0000 O   0  0  0  0  0  0  0  0  0  0  0  0
    2.1500   -2.6917    0.0000 C   0  0  0  0  0  0  0  0  0  0  0  0
    2.8625   -3.1125    0.0000 C   0  0  0  0  0  0  0  0  0  0  0  0
    4.2875   -3.9417    0.0000 C   0  0  0  0  0  0  0  0  0  0  0  0
    5.0000   -4.3542    0.0000 C   0  0  0  0  0  0  0  0  0  0  0  0
  2  1  2  0
  3  1  1  0
  4  2  1  0
  5  3  1  0
  6  1  1  0
  7 10  1  0
  8  3  2  0
  9  5  2  0
 10  6  2  0
 11  2  1  0
 12  4  1  0
 13  9  1  0
 14  7  1  0
 15  5  1  0
 16 13  1  0
 17 15  2  0
 18 17  1  0
 19 16  1  0
 20 19  1  0
  4  7  2  0
 13 18  2  0
M  END
>  <ID>  (2238) 


>  <MOLENAME>  (2238) 
3.4-DIDESMETHYL-5-DESHYDROXY-3'-ETHOXYSCLEROIN

>  <therap>  (2238) 
nan

>  <ref>  (2238) 
Tetrahedron 21: 2697 (1965)

>  <cas#>  (2238) 
nan

>  <source>  (2238) 
synthetic

>  <status>  (2238) 
undetermined activity

>  <tradename>  (2238) 
nan

>  <SMILES>  (2238) 
CCOc1cccc(C(=O)c2c(O)c(O)c(O)cc2)c1

>  <standardized_failed>  (2238) 
False

$$$$

     RDKit          2D

 20 22  0  0  0  0  0  0  0  0999 V2000
    2.1542   -2.2417    0.0000 C   0  0  0  0  0  0  0  0  0  0  0  0
    2.8667   -2.6542    0.0000 C   0  0  0  0  0  0  0  0  0  0  0  0
    2.1625   -1.4167    0.0000 C   0  0  0  0  0  0  0  0  0  0  0  0
    2.8750   -1.0042    0.0000 O   0  0  0  0  0  0  0  0  0  0  0  0
    1.4500   -2.6542    0.0000 C   0  0  0  0  0  0  0  0  0  0  0  0
    3.5875   -2.2500    0.0000 C   0  0  0  0  0  0  0  0  0  0  0  0
    3.5875   -1.4250    0.0000 C   0  0  0  0  0  0  0  0  0  0  0  0
    1.4500   -1.0042    0.0000 C   0  0  0  0  0  0  0  0  0  0  0  0
    0.7417   -2.2417    0.0000 C   0  0  0  0  0  0  0  0  0  0  0  0
    0.7417   -1.4167    0.0000 C   0  0  0  0  0  0  0  0  0  0  0  0
    4.3042   -1.0167    0.0000 C   0  0  0  0  0  0  0  0  0  0  0  0
    2.8625   -3.4792    0.0000 O   0  0  0  0  0  0  0  0  0  0  0  0
    4.3042   -0.1917    0.0000 C   0  0  0  0  0  0  0  0  0  0  0  0
    5.0167   -1.4417    0.0000 C   0  0  0  0  0  0  0  0  0  0  0  0
    1.4542   -3.4792    0.0000 O   0  0  0  0  0  0  0  0  0  0  0  0
    5.7417   -0.2042    0.0000 C   0  0  0  0  0  0  0  0  0  0  0  0
    5.7292   -1.0292    0.0000 C   0  0  0  0  0  0  0  0  0  0  0  0
    5.0292    0.2083    0.0000 C   0  0  0  0  0  0  0  0  0  0  0  0
    0.0250   -1.0042    0.0000 O   0  0  0  0  0  0  0  0  0  0  0  0
    6.4542    0.1958    0.0000 O   0  0  0  0  0  0  0  0  0  0  0  0
  2  1  1  0
  3  1  2  0
  4  3  1  0
  5  1  1  0
  6  2  1  0
  7  4  1  0
  8  3  1  0
  9  5  2  0
 10  9  1  0
  7 11  1  0
 12  2  2  0
 13 11  2  0
 14 11  1  0
 15  5  1  0
 16 17  1  0
 17 14  2  0
 18 13  1  0
 19 10  1  0
 20 16  1  0
 10  8  2  0
  7  6  1  6
 18 16  2  0
M  END
>  <ID>  (2239) 


>  <MOLENAME>  (2239) 
NARINGENIN

>  <therap>  (2239) 
antiulcer, gibberellin antagonist

>  <ref>  (2239) 
nan

>  <cas#>  (2239) 
480-41-1

>  <source>  (2239) 
widely distributed in plants

>  <status>  (2239) 
experimental

>  <tradename>  (2239) 
nan

>  <SMILES>  (2239) 
O=C1C[C@@H](c2ccc(O)cc2)Oc2c1c(O)cc(O)c2

>  <standardized_failed>  (2239) 
False

$$$$

     RDKit          2D

 11 11  0  0  0  0  0  0  0  0999 V2000
    2.3000   -2.5417    0.0000 C   0  0  0  0  0  0  0  0  0  0  0  0
    3.0125   -2.9542    0.0000 C   0  0  0  0  0  0  0  0  0  0  0  0
    1.5917   -2.9542    0.0000 C   0  0  0  0  0  0  0  0  0  0  0  0
    1.5917   -3.7792    0.0000 C   0  0  0  0  0  0  0  0  0  0  0  0
    3.0125   -3.7792    0.0000 C   0  0  0  0  0  0  0  0  0  0  0  0
    2.3000   -4.1917    0.0000 C   0  0  0  0  0  0  0  0  0  0  0  0
    3.7292   -2.5417    0.0000 O   0  0  0  0  0  0  0  0  0  0  0  0
    0.8750   -2.5417    0.0000 O   0  0  0  0  0  0  0  0  0  0  0  0
    2.3000   -5.0167    0.0000 O   0  0  0  0  0  0  0  0  0  0  0  0
    2.3000   -1.7167    0.0000 C   0  0  0  0  0  0  0  0  0  0  0  0
    1.5875   -5.4292    0.0000 C   0  0  0  0  0  0  0  0  0  0  0  0
  2  1  2  0
  3  1  1  0
  4  3  2  0
  5  2  1  0
  6  4  1  0
  7  2  1  0
  8  3  1  0
  9  6  1  0
 10  1  1  0
 11  9  1  0
  6  5  2  0
M  END
>  <ID>  (2240) 


>  <MOLENAME>  (2240) 
2.6-DIHYDROXY-4-METHOXYTOLUENE

>  <therap>  (2240) 
nan

>  <ref>  (2240) 
nan

>  <cas#>  (2240) 
nan

>  <source>  (2240) 
synthetic

>  <status>  (2240) 
undetermined activity

>  <tradename>  (2240) 
nan

>  <SMILES>  (2240) 
COc1cc(O)c(C)c(O)c1

>  <standardized_failed>  (2240) 
False

$$$$

     RDKit          2D

 19 21  0  0  0  0  0  0  0  0999 V2000
    6.0292   -3.3500    0.0000 C   0  0  0  0  0  0  0  0  0  0  0  0
    6.0292   -4.0250    0.0000 C   0  0  0  0  0  0  0  0  0  0  0  0
    4.8542   -4.0250    0.0000 C   0  0  0  0  0  0  0  0  0  0  0  0
    5.4417   -4.3542    0.0000 C   0  0  0  0  0  0  0  0  0  0  0  0
    5.4417   -3.0042    0.0000 O   0  0  0  0  0  0  0  0  0  0  0  0
    4.8542   -3.3500    0.0000 C   0  0  0  0  0  0  0  0  0  0  0  0
    6.6167   -3.0042    0.0000 C   0  0  0  0  0  0  0  0  0  0  0  0
    4.2542   -4.3542    0.0000 C   0  0  0  0  0  0  0  0  0  0  0  0
    5.4417   -5.0375    0.0000 O   0  0  0  0  0  0  0  0  0  0  0  0
    4.2542   -3.0042    0.0000 C   0  0  0  0  0  0  0  0  0  0  0  0
    6.6167   -2.3375    0.0000 C   0  0  0  0  0  0  0  0  0  0  0  0
    7.2042   -3.3500    0.0000 C   0  0  0  0  0  0  0  0  0  0  0  0
    3.6917   -4.0250    0.0000 C   0  0  0  0  0  0  0  0  0  0  0  0
    7.7917   -2.3375    0.0000 C   0  0  0  0  0  0  0  0  0  0  0  0
    3.6917   -3.3500    0.0000 C   0  0  0  0  0  0  0  0  0  0  0  0
    7.7917   -3.0042    0.0000 C   0  0  0  0  0  0  0  0  0  0  0  0
    7.2042   -2.0000    0.0000 C   0  0  0  0  0  0  0  0  0  0  0  0
    3.1042   -4.3542    0.0000 O   0  0  0  0  0  0  0  0  0  0  0  0
    8.3792   -2.0000    0.0000 O   0  0  0  0  0  0  0  0  0  0  0  0
  2  1  2  0
  3  6  2  0
  4  2  1  0
  5  1  1  0
  6  5  1  0
  7  1  1  0
  8  3  1  0
  9  4  2  0
 10  6  1  0
 11  7  2  0
 12  7  1  0
 13 15  1  0
 14 16  1  0
 15 10  2  0
 16 12  2  0
 17 11  1  0
 18 13  1  0
 19 14  1  0
  3  4  1  0
 14 17  2  0
  8 13  2  0
M  END
>  <ID>  (2241) 


>  <MOLENAME>  (2241) 
6.4'-DIHYDROXYFLAVONE

>  <therap>  (2241) 
antihaemorrhagic

>  <ref>  (2241) 
nan

>  <cas#>  (2241) 
63046-09-3

>  <source>  (2241) 
Cassia spp as glycoside

>  <status>  (2241) 
experimental

>  <tradename>  (2241) 
nan

>  <SMILES>  (2241) 
O=c1cc(-c2ccc(O)cc2)oc2c1cc(O)cc2

>  <standardized_failed>  (2241) 
False

$$$$

     RDKit          2D

 10  9  0  0  0  0  0  0  0  0999 V2000
    7.1417   -3.1792    0.0000 C   0  0  0  0  0  0  0  0  0  0  0  0
    6.4250   -3.5917    0.0000 C   0  0  0  0  0  0  0  0  0  0  0  0
    7.1417   -2.3542    0.0000 O   0  0  0  0  0  0  0  0  0  0  0  0
    6.4250   -4.4250    0.0000 N   0  0  0  0  0  0  0  0  0  0  0  0
    7.8542   -3.5917    0.0000 O   0  0  0  0  0  0  0  0  0  0  0  0
    5.7042   -3.1792    0.0000 C   0  0  0  0  0  0  0  0  0  0  0  0
    5.7125   -4.8375    0.0000 C   0  0  0  0  0  0  0  0  0  0  0  0
    4.9917   -3.5917    0.0000 C   0  0  0  0  0  0  0  0  0  0  0  0
    5.7042   -2.3542    0.0000 C   0  0  0  0  0  0  0  0  0  0  0  0
    4.2375   -3.2542    0.0000 C   0  0  0  0  0  0  0  0  0  0  0  0
  2  1  1  0
  3  1  2  0
  4  2  1  0
  5  1  1  0
  6  2  1  0
  7  4  1  0
  8  6  1  0
  9  6  1  0
 10  8  1  0
M  END
>  <ID>  (2242) 


>  <MOLENAME>  (2242) 
N-METHYLISOLEUCINE

>  <therap>  (2242) 
nan

>  <ref>  (2242) 
Phytochemistry 42: 443 (1996)

>  <cas#>  (2242) 
5125-98-8

>  <source>  (2242) 
Phasealus vulgaris

>  <status>  (2242) 
undetermined activity

>  <tradename>  (2242) 
nan

>  <SMILES>  (2242) 
CCC(C)C(NC)C(=O)O

>  <standardized_failed>  (2242) 
False

$$$$

     RDKit          2D

 21 23  0  0  0  0  0  0  0  0999 V2000
    2.9042   -1.9042    0.0000 O   0  0  0  0  0  0  0  0  0  0  0  0
    2.1792   -2.3042    0.0000 C   0  0  0  0  0  0  0  0  0  0  0  0
    2.1792   -3.1417    0.0000 C   0  0  0  0  0  0  0  0  0  0  0  0
    3.6292   -2.3042    0.0000 C   0  0  0  0  0  0  0  0  0  0  0  0
    2.9042   -3.5750    0.0000 C   0  0  0  0  0  0  0  0  0  0  0  0
    1.4500   -3.5667    0.0000 C   0  0  0  0  0  0  0  0  0  0  0  0
    4.3292   -1.9042    0.0000 C   0  0  0  0  0  0  0  0  0  0  0  0
    3.6292   -3.1417    0.0000 C   0  0  0  0  0  0  0  0  0  0  0  0
    1.4500   -1.8917    0.0000 C   0  0  0  0  0  0  0  0  0  0  0  0
    0.7542   -3.1417    0.0000 C   0  0  0  0  0  0  0  0  0  0  0  0
    4.3292   -1.0917    0.0000 C   0  0  0  0  0  0  0  0  0  0  0  0
    5.0542   -0.6667    0.0000 C   0  0  0  0  0  0  0  0  0  0  0  0
    0.7542   -2.3042    0.0000 C   0  0  0  0  0  0  0  0  0  0  0  0
    5.7542   -1.0917    0.0000 C   0  0  0  0  0  0  0  0  0  0  0  0
    5.0542   -2.3042    0.0000 C   0  0  0  0  0  0  0  0  0  0  0  0
    5.7542   -1.9042    0.0000 C   0  0  0  0  0  0  0  0  0  0  0  0
    1.4500   -4.3792    0.0000 O   0  0  0  0  0  0  0  0  0  0  0  0
    4.3292   -3.5667    0.0000 O   0  0  0  0  0  0  0  0  0  0  0  0
    5.0542    0.1708    0.0000 O   0  0  0  0  0  0  0  0  0  0  0  0
    6.4792   -0.6667    0.0000 O   0  0  0  0  0  0  0  0  0  0  0  0
    0.0250   -1.9042    0.0000 O   0  0  0  0  0  0  0  0  0  0  0  0
  2  1  1  0
  3  2  2  0
  4  1  1  6
  5  8  1  0
  6  3  1  0
  4  7  1  0
  8  4  1  0
  9  2  1  0
 10 13  1  0
 11  7  2  0
 12 11  1  0
 13  9  2  0
 14 16  1  0
 15  7  1  0
 16 15  2  0
 17  6  1  0
  8 18  1  6
 19 12  1  0
 20 14  1  0
 21 13  1  0
  3  5  1  0
  6 10  2  0
 14 12  2  0
M  END
>  <ID>  (2243) 


>  <MOLENAME>  (2243) 
EPICATECHIN

>  <therap>  (2243) 
antioxidant

>  <ref>  (2243) 
J Chem Soc 1969: 1824; Acta Cryst C 40: 2068 (1984)

>  <cas#>  (2243) 
490-46-0

>  <source>  (2243) 
tea and cocoa constituent

>  <status>  (2243) 
experimental

>  <tradename>  (2243) 
nan

>  <SMILES>  (2243) 
Oc1cc2c(C[C@@H](O)[C@@H](c3cc(O)c(O)cc3)O2)c(O)c1

>  <standardized_failed>  (2243) 
False

$$$$

     RDKit          2D

 24 27  0  0  0  0  0  0  0  0999 V2000
    4.3167   -2.3667    0.0000 C   0  0  0  0  0  0  0  0  0  0  0  0
    3.6000   -1.9417    0.0000 C   0  0  0  0  0  0  0  0  0  0  0  0
    2.8875   -2.3542    0.0000 C   0  0  0  0  0  0  0  0  0  0  0  0
    4.3167   -3.1917    0.0000 C   0  0  0  0  0  0  0  0  0  0  0  0
    2.8917   -3.1875    0.0000 C   0  0  0  0  0  0  0  0  0  0  0  0
    5.0250   -1.9542    0.0000 C   0  0  0  0  0  0  0  0  0  0  0  0
    3.6000   -3.6042    0.0000 C   0  0  0  0  0  0  0  0  0  0  0  0
    5.0292   -3.6042    0.0000 N   0  0  0  0  0  0  0  0  0  0  0  0
    3.6000   -1.1167    0.0000 C   0  0  0  0  0  0  0  0  0  0  0  0
    2.1667   -1.9417    0.0000 C   0  0  0  0  0  0  0  0  0  0  0  0
    4.3167   -0.7000    0.0000 C   0  0  0  0  0  0  0  0  0  0  0  0
    5.0417   -1.1292    0.0000 C   0  0  0  0  0  0  0  0  0  0  0  0
    2.1667   -3.6042    0.0000 C   0  0  0  0  0  0  0  0  0  0  0  0
    1.4542   -2.3542    0.0000 C   0  0  0  0  0  0  0  0  0  0  0  0
    1.4542   -3.1875    0.0000 C   0  0  0  0  0  0  0  0  0  0  0  0
    5.7417   -2.3667    0.0000 C   0  0  0  0  0  0  0  0  0  0  0  0
    5.7500   -3.1875    0.0000 C   0  0  0  0  0  0  0  0  0  0  0  0
    2.8875   -0.7000    0.0000 O   0  0  0  0  0  0  0  0  0  0  0  0
    4.3292    0.1333    0.0000 O   0  0  0  0  0  0  0  0  0  0  0  0
    0.7375   -3.6125    0.0000 O   0  0  0  0  0  0  0  0  0  0  0  0
    0.7375   -1.9542    0.0000 O   0  0  0  0  0  0  0  0  0  0  0  0
    5.0250   -4.4292    0.0000 C   0  0  0  0  0  0  0  0  0  0  0  0
    2.8917    0.1333    0.0000 C   0  0  0  0  0  0  0  0  0  0  0  0
    0.7292   -1.1250    0.0000 C   0  0  0  0  0  0  0  0  0  0  0  0
  2  1  2  0
  3  2  1  0
  4  1  1  0
  5  7  1  0
  6  1  1  0
  7  4  1  0
  8  4  1  0
  9  2  1  0
 10  3  2  0
 11 12  1  0
 12  6  2  0
 13  5  2  0
 14 10  1  0
 15 13  1  0
 16  6  1  0
 17 16  1  0
 18  9  1  0
 19 11  1  0
 20 15  1  0
 21 14  1  0
 22  8  1  0
 23 18  1  0
 24 21  1  0
 17  8  1  0
 11  9  2  0
  5  3  1  0
 15 14  2  0
M  END
>  <ID>  (2244) 


>  <MOLENAME>  (2244) 
BOLDINE

>  <therap>  (2244) 
nan

>  <ref>  (2244) 
J Chem Soc Perkin  I 1977: 706

>  <cas#>  (2244) 
476-70-0

>  <source>  (2244) 
Peumus boldus

>  <status>  (2244) 
undetermined activity

>  <tradename>  (2244) 
nan

>  <SMILES>  (2244) 
COc1c(O)cc2CC3c4c(-c2c1)c(OC)c(O)cc4CCN3C

>  <standardized_failed>  (2244) 
False

$$$$

     RDKit          2D

 22 24  0  0  0  0  0  0  0  0999 V2000
    1.8792   -2.5917    0.0000 C   0  0  0  0  0  0  0  0  0  0  0  0
    3.3000   -2.6000    0.0000 C   0  0  0  0  0  0  0  0  0  0  0  0
    1.8750   -3.4167    0.0000 C   0  0  0  0  0  0  0  0  0  0  0  0
    1.1667   -3.8250    0.0000 C   0  0  0  0  0  0  0  0  0  0  0  0
    2.5917   -2.1792    0.0000 C   0  0  0  0  0  0  0  0  0  0  0  0
    4.0167   -2.1917    0.0000 C   0  0  0  0  0  0  0  0  0  0  0  0
    4.0292   -1.3667    0.0000 C   0  0  0  0  0  0  0  0  0  0  0  0
    0.5792   -4.4042    0.0000 C   0  0  0  0  0  0  0  0  0  0  0  0
    3.3042   -3.4167    0.0000 C   0  0  0  0  0  0  0  0  0  0  0  0
    2.5875   -3.8292    0.0000 C   0  0  0  0  0  0  0  0  0  0  0  0
    2.6000   -1.3542    0.0000 C   0  0  0  0  0  0  0  0  0  0  0  0
    3.3167   -0.9500    0.0000 C   0  0  0  0  0  0  0  0  0  0  0  0
   -0.2208   -4.1875    0.0000 O   0  0  0  0  0  0  0  0  0  0  0  0
    4.7500   -0.9667    0.0000 C   0  0  0  0  0  0  0  0  0  0  0  0
    1.1667   -2.1750    0.0000 C   0  0  0  0  0  0  0  0  0  0  0  0
    0.7792   -5.2042    0.0000 O   0  0  0  0  0  0  0  0  0  0  0  0
    1.8750   -1.7667    0.0000 C   0  0  0  0  0  0  0  0  0  0  0  0
    0.4542   -3.4167    0.0000 C   0  0  0  0  0  0  0  0  0  0  0  0
    1.8792   -4.2375    0.0000 C   0  0  0  0  0  0  0  0  0  0  0  0
    0.4542   -2.5917    0.0000 C   0  0  0  0  0  0  0  0  0  0  0  0
    5.4542   -1.3917    0.0000 C   0  0  0  0  0  0  0  0  0  0  0  0
    4.7542   -0.1417    0.0000 C   0  0  0  0  0  0  0  0  0  0  0  0
  2  5  1  0
  3  1  1  0
  4  3  1  0
  5  1  1  0
  6  2  1  0
  7 12  1  0
  4  8  1  0
  9  2  2  0
 10  3  1  0
 11  5  1  0
 12 11  1  0
 13  8  2  0
 14  7  1  0
 15  1  1  0
 16  8  1  0
  1 17  1  1
 18 20  1  0
  4 19  1  6
 20 15  1  0
 21 14  1  0
 22 14  1  0
 10  9  1  0
 18  4  1  0
  6  7  2  0
M  END
>  <ID>  (2245) 


>  <MOLENAME>  (2245) 
ABIETIC ACID

>  <therap>  (2245) 
nan

>  <ref>  (2245) 
nan

>  <cas#>  (2245) 
514-10-3

>  <source>  (2245) 
common diterpene acid in conifers

>  <status>  (2245) 
undetermined activity

>  <tradename>  (2245) 
nan

>  <SMILES>  (2245) 
CC(C)C1=CC2=CCC3[C@@](C)(C(=O)O)CCC[C@]3(C)C2CC1

>  <standardized_failed>  (2245) 
False

$$$$

     RDKit          2D

 13 13  0  0  0  0  0  0  0  0999 V2000
    2.7375   -3.4292    0.0000 C   0  0  0  0  0  0  0  0  0  0  0  0
    4.0792   -3.4292    0.0000 C   0  0  0  0  0  0  0  0  0  0  0  0
    3.9542   -2.8375    0.0000 C   0  0  0  0  0  0  0  0  0  0  0  0
    4.9667   -3.2750    0.0000 C   0  0  0  0  0  0  0  0  0  0  0  0
    4.7875   -4.1042    0.0000 C   0  0  0  0  0  0  0  0  0  0  0  0
    6.2292   -3.2750    0.0000 C   0  0  0  0  0  0  0  0  0  0  0  0
    2.5042   -4.1750    0.0000 O   0  0  0  0  0  0  0  0  0  0  0  0
    4.4250   -2.5250    0.0000 O   0  0  0  0  0  0  0  0  0  0  0  0
    2.7375   -2.8375    0.0000 O   0  0  0  0  0  0  0  0  0  0  0  0
    5.3792   -2.5542    0.0000 O   0  0  0  0  0  0  0  0  0  0  0  0
    4.7792   -4.9292    0.0000 O   0  0  0  0  0  0  0  0  0  0  0  0
    6.4417   -2.4750    0.0000 O   0  0  0  0  0  0  0  0  0  0  0  0
    7.2375   -2.2542    0.0000 C   0  0  0  0  0  0  0  0  0  0  0  0
  2  1  1  0
  3  1  1  0
  4  3  1  0
  2  5  1  0
  6  4  1  0
  7  1  1  0
  2  8  1  1
  9  3  1  0
 10  4  1  0
 11  5  1  0
 12  6  1  0
 13 12  1  0
  6  5  1  0
M  END
>  <ID>  (2246) 


>  <MOLENAME>  (2246) 
QUEBRACHITOL

>  <therap>  (2246) 
nan

>  <ref>  (2246) 
nan

>  <cas#>  (2246) 
642-38-6

>  <source>  (2246) 
common in dicotyledons

>  <status>  (2246) 
undetermined activity

>  <tradename>  (2246) 
nan

>  <SMILES>  (2246) 
COC1C(O)C(O)C(O)[C@@H](O)C1O

>  <standardized_failed>  (2246) 
False

$$$$

     RDKit          2D

 28 31  0  0  0  0  0  0  0  0999 V2000
    6.6750   -3.5792    0.0000 C   0  0  0  0  0  0  0  0  0  0  0  0
    4.5542   -4.8167    0.0000 C   0  0  0  0  0  0  0  0  0  0  0  0
    4.5542   -5.6417    0.0000 C   0  0  0  0  0  0  0  0  0  0  0  0
    6.6792   -4.3917    0.0000 C   0  0  0  0  0  0  0  0  0  0  0  0
    5.2542   -4.4042    0.0000 C   0  0  0  0  0  0  0  0  0  0  0  0
    5.9792   -4.8125    0.0000 C   0  0  0  0  0  0  0  0  0  0  0  0
    7.4542   -3.3250    0.0000 C   0  0  0  0  0  0  0  0  0  0  0  0
    5.2667   -6.0500    0.0000 C   0  0  0  0  0  0  0  0  0  0  0  0
    5.9667   -3.1750    0.0000 C   0  0  0  0  0  0  0  0  0  0  0  0
    5.9792   -5.6292    0.0000 C   0  0  0  0  0  0  0  0  0  0  0  0
    5.2542   -3.5875    0.0000 C   0  0  0  0  0  0  0  0  0  0  0  0
    7.4542   -4.6500    0.0000 C   0  0  0  0  0  0  0  0  0  0  0  0
    3.8417   -4.4167    0.0000 C   0  0  0  0  0  0  0  0  0  0  0  0
    7.9292   -3.9792    0.0000 C   0  0  0  0  0  0  0  0  0  0  0  0
    3.8542   -6.0542    0.0000 C   0  0  0  0  0  0  0  0  0  0  0  0
    3.1417   -5.6500    0.0000 C   0  0  0  0  0  0  0  0  0  0  0  0
    2.3417   -6.0042    0.0000 O   0  0  0  0  0  0  0  0  0  0  0  0
    7.6750   -2.5042    0.0000 C   0  0  0  0  0  0  0  0  0  0  0  0
    3.1375   -4.8292    0.0000 C   0  0  0  0  0  0  0  0  0  0  0  0
    6.6667   -2.7292    0.0000 C   0  0  0  0  0  0  0  0  0  0  0  0
    4.5500   -3.9667    0.0000 C   0  0  0  0  0  0  0  0  0  0  0  0
    9.1000   -2.5000    0.0000 C   0  0  0  0  0  0  0  0  0  0  0  0
    8.3875   -2.0917    0.0000 C   0  0  0  0  0  0  0  0  0  0  0  0
    7.1292   -1.8375    0.0000 C   0  0  0  0  0  0  0  0  0  0  0  0
    9.8125   -2.0875    0.0000 C   0  0  0  0  0  0  0  0  0  0  0  0
   10.5167   -2.4917    0.0000 C   0  0  0  0  0  0  0  0  0  0  0  0
   11.2375   -2.0792    0.0000 C   0  0  0  0  0  0  0  0  0  0  0  0
   10.5167   -3.3167    0.0000 C   0  0  0  0  0  0  0  0  0  0  0  0
  2  5  1  0
  3  2  1  0
  4  1  1  0
  5 11  1  0
  6  4  1  0
  7  1  1  0
  8 10  1  0
  9  1  1  0
 10  6  1  0
 11  9  1  0
 12  4  1  0
 13  2  1  0
 14  7  1  0
 15  3  1  0
 16 19  1  0
 17 16  2  0
  7 18  1  1
 19 13  1  0
  1 20  1  1
  2 21  1  1
 22 23  1  0
 23 18  1  0
 24 18  1  0
 25 22  1  0
 26 25  1  0
 27 26  1  0
 28 26  1  0
 14 12  1  0
  5  6  1  0
  8  3  2  0
 15 16  1  0
M  END
>  <ID>  (2247) 


>  <MOLENAME>  (2247) 
CHOLEST-5-EN-3-ONE

>  <therap>  (2247) 
nan

>  <ref>  (2247) 
J Am Chem Soc 75: 3500 (1953)

>  <cas#>  (2247) 
601-54-7

>  <source>  (2247) 
animal fats; mp 79-80 C

>  <status>  (2247) 
undetermined activity

>  <tradename>  (2247) 
nan

>  <SMILES>  (2247) 
CC(C)CCCC(C)[C@H]1CCC2C3CC=C4CC(=O)CC[C@]4(C)C3CC[C@@]21C

>  <standardized_failed>  (2247) 
False

$$$$

     RDKit          2D

  6  6  0  0  0  0  0  0  0  0999 V2000
    3.4792   -2.6167    0.0000 C   0  0  0  0  0  0  0  0  0  0  0  0
    2.6542   -2.6167    0.0000 N   0  0  0  0  0  0  0  0  0  0  0  0
    3.7375   -1.8292    0.0000 N   0  0  0  0  0  0  0  0  0  0  0  0
    3.0667   -1.3500    0.0000 N   0  0  0  0  0  0  0  0  0  0  0  0
    2.4042   -1.8292    0.0000 C   0  0  0  0  0  0  0  0  0  0  0  0
    3.9667   -3.2875    0.0000 N   0  0  0  0  0  0  0  0  0  0  0  0
  2  1  1  0
  3  1  2  0
  4  3  1  0
  5  2  1  0
  6  1  1  0
  5  4  2  0
M  END
>  <ID>  (2248) 


>  <MOLENAME>  (2248) 
3-AMINO-1.2.4-TRIAZOLE

>  <therap>  (2248) 
catalase inhibitor

>  <ref>  (2248) 
Biochem Pharmacol 42:699 (1991); Am J Physiol 270:H1165

>  <cas#>  (2248) 
61-82-5

>  <source>  (2248) 
synthetic

>  <status>  (2248) 
experimental

>  <tradename>  (2248) 
nan

>  <SMILES>  (2248) 
Nc1nnc[nH]1

>  <standardized_failed>  (2248) 
False

$$$$

     RDKit          2D

 25 28  0  0  0  0  0  0  0  0999 V2000
    5.0917   -2.9250    0.0000 C   0  0  0  0  0  0  0  0  0  0  0  0
    4.3875   -2.5167    0.0000 C   0  0  0  0  0  0  0  0  0  0  0  0
    5.8042   -2.5167    0.0000 N   0  0  0  0  0  0  0  0  0  0  0  0
    3.6667   -2.9167    0.0000 C   0  0  0  0  0  0  0  0  0  0  0  0
    4.3875   -1.6792    0.0000 C   0  0  0  0  0  0  0  0  0  0  0  0
    3.6667   -3.7417    0.0000 C   0  0  0  0  0  0  0  0  0  0  0  0
    4.3750   -4.1542    0.0000 C   0  0  0  0  0  0  0  0  0  0  0  0
    2.9542   -2.5125    0.0000 C   0  0  0  0  0  0  0  0  0  0  0  0
    5.0917   -3.7417    0.0000 C   0  0  0  0  0  0  0  0  0  0  0  0
    3.6667   -1.2667    0.0000 C   0  0  0  0  0  0  0  0  0  0  0  0
    2.9542   -1.6875    0.0000 C   0  0  0  0  0  0  0  0  0  0  0  0
    5.1000   -1.2667    0.0000 C   0  0  0  0  0  0  0  0  0  0  0  0
    2.1750   -2.7667    0.0000 O   0  0  0  0  0  0  0  0  0  0  0  0
    6.5167   -2.1000    0.0000 O   0  0  0  0  0  0  0  0  0  0  0  0
    2.1750   -1.4292    0.0000 O   0  0  0  0  0  0  0  0  0  0  0  0
    6.2167   -3.2292    0.0000 O   0  0  0  0  0  0  0  0  0  0  0  0
    1.6917   -2.1000    0.0000 C   0  0  0  0  0  0  0  0  0  0  0  0
    4.3875   -4.9792    0.0000 C   0  0  0  0  0  0  0  0  0  0  0  0
    5.0917   -0.4417    0.0000 O   0  0  0  0  0  0  0  0  0  0  0  0
    5.8167   -1.6792    0.0000 O   0  0  0  0  0  0  0  0  0  0  0  0
    2.9542   -4.1542    0.0000 C   0  0  0  0  0  0  0  0  0  0  0  0
    5.1042   -5.3875    0.0000 O   0  0  0  0  0  0  0  0  0  0  0  0
    2.9542   -4.9792    0.0000 C   0  0  0  0  0  0  0  0  0  0  0  0
    3.6667   -5.4000    0.0000 C   0  0  0  0  0  0  0  0  0  0  0  0
    5.1167   -6.2125    0.0000 C   0  0  0  0  0  0  0  0  0  0  0  0
  2  1  2  0
  3  1  1  0
  4  2  1  0
  5  2  1  0
  6  7  1  0
  7  9  2  0
  8  4  1  0
  9  1  1  0
 10  5  2  0
 11 10  1  0
 12  5  1  0
 13  8  1  0
 14  3  1  0
 15 11  1  0
 16  3  2  0
 17 13  1  0
 18  7  1  0
 19 12  2  0
 20 12  1  0
 21  6  1  0
 22 18  1  0
 23 24  1  0
 24 18  2  0
 25 22  1  0
  4  6  2  0
  8 11  2  0
 23 21  2  0
 15 17  1  0
M  CHG  2   3   1  14  -1
M  END
>  <ID>  (2249) 


>  <MOLENAME>  (2249) 
ARISTOLOCHIC ACID

>  <therap>  (2249) 
PLA2 inhibitor

>  <ref>  (2249) 
Pharmazie 8: 584 (1953); Biochim Biophys Acta 1001: 1 (1989)

>  <cas#>  (2249) 
313-67-7

>  <source>  (2249) 
Aristolochaceae spp

>  <status>  (2249) 
experimental

>  <tradename>  (2249) 
nan

>  <SMILES>  (2249) 
COc1cccc2c3c4c(cc(C(=O)O)c3c([N+](=O)[O-])cc12)OCO4

>  <standardized_failed>  (2249) 
False

$$$$

     RDKit          2D

 19 20  0  0  0  0  0  0  0  0999 V2000
    0.1917   -1.1667    0.0000 C   0  0  0  0  0  0  0  0  0  0  0  0
    0.9125   -1.5792    0.0000 C   0  0  0  0  0  0  0  0  0  0  0  0
    0.1917   -0.3417    0.0000 C   0  0  0  0  0  0  0  0  0  0  0  0
   -0.5208    0.0750    0.0000 C   0  0  0  0  0  0  0  0  0  0  0  0
   -0.5208   -1.5750    0.0000 C   0  0  0  0  0  0  0  0  0  0  0  0
    1.6250   -1.1667    0.0000 C   0  0  0  0  0  0  0  0  0  0  0  0
    0.9042   -2.4042    0.0000 O   0  0  0  0  0  0  0  0  0  0  0  0
   -1.2250   -0.3417    0.0000 C   0  0  0  0  0  0  0  0  0  0  0  0
    2.3417   -1.5792    0.0000 C   0  0  0  0  0  0  0  0  0  0  0  0
    0.9125    0.0708    0.0000 O   0  0  0  0  0  0  0  0  0  0  0  0
   -1.2250   -1.1667    0.0000 C   0  0  0  0  0  0  0  0  0  0  0  0
    3.7625   -2.4125    0.0000 C   0  0  0  0  0  0  0  0  0  0  0  0
    2.3375   -2.4042    0.0000 C   0  0  0  0  0  0  0  0  0  0  0  0
    3.0542   -1.1667    0.0000 C   0  0  0  0  0  0  0  0  0  0  0  0
    3.0417   -2.8167    0.0000 C   0  0  0  0  0  0  0  0  0  0  0  0
    3.7667   -1.5875    0.0000 C   0  0  0  0  0  0  0  0  0  0  0  0
   -1.9458    0.0708    0.0000 O   0  0  0  0  0  0  0  0  0  0  0  0
    4.4750   -2.8292    0.0000 O   0  0  0  0  0  0  0  0  0  0  0  0
    4.4667   -3.6542    0.0000 C   0  0  0  0  0  0  0  0  0  0  0  0
  2  1  1  0
  3  1  2  0
  4  3  1  0
  5  1  1  0
  6  2  1  0
  7  2  2  0
  8 11  1  0
  9  6  1  0
 10  3  1  0
 11  5  2  0
 12 16  2  0
 13  9  1  0
 14  9  2  0
 15 13  2  0
 16 14  1  0
 17  8  1  0
 18 12  1  0
 19 18  1  0
  8  4  2  0
 12 15  1  0
M  END
>  <ID>  (2250) 


>  <MOLENAME>  (2250) 
ONONETIN

>  <therap>  (2250) 
nan

>  <ref>  (2250) 
Monatsh Chem 63: 201 (1933); Aust J Chem 19: 1755 (1966)

>  <cas#>  (2250) 
487-49-0

>  <source>  (2250) 
Trifolium subterraneum

>  <status>  (2250) 
undetermined activity

>  <tradename>  (2250) 
nan

>  <SMILES>  (2250) 
COc1ccc(CC(=O)c2c(O)cc(O)cc2)cc1

>  <standardized_failed>  (2250) 
False

$$$$

     RDKit          2D

 40 44  0  0  0  0  0  0  0  0999 V2000
    0.9167   -0.2167    0.0000 C   0  0  0  0  0  0  0  0  0  0  0  0
    1.5750   -0.5917    0.0000 C   0  0  0  0  0  0  0  0  0  0  0  0
    2.2292   -0.2167    0.0000 C   0  0  0  0  0  0  0  0  0  0  0  0
    0.2667   -0.5917    0.0000 C   0  0  0  0  0  0  0  0  0  0  0  0
    0.9167    0.5333    0.0000 C   0  0  0  0  0  0  0  0  0  0  0  0
    2.8792   -0.5917    0.0000 C   0  0  0  0  0  0  0  0  0  0  0  0
   -0.3833   -0.2167    0.0000 C   0  0  0  0  0  0  0  0  0  0  0  0
    2.2292    0.5333    0.0000 C   0  0  0  0  0  0  0  0  0  0  0  0
    1.5750    0.9125    0.0000 O   0  0  0  0  0  0  0  0  0  0  0  0
   -0.3833    0.5333    0.0000 C   0  0  0  0  0  0  0  0  0  0  0  0
    4.1750   -1.3417    0.0000 C   0  0  0  0  0  0  0  0  0  0  0  0
    0.2667    0.9125    0.0000 C   0  0  0  0  0  0  0  0  0  0  0  0
    4.1750   -0.5917    0.0000 C   0  0  0  0  0  0  0  0  0  0  0  0
    3.5292   -1.7167    0.0000 C   0  0  0  0  0  0  0  0  0  0  0  0
    3.5292   -0.2167    0.0000 C   0  0  0  0  0  0  0  0  0  0  0  0
    2.8792   -1.3417    0.0000 C   0  0  0  0  0  0  0  0  0  0  0  0
    1.5750   -1.3417    0.0000 O   0  0  0  0  0  0  0  0  0  0  0  0
   -1.0333    0.9083    0.0000 O   0  0  0  0  0  0  0  0  0  0  0  0
    4.8250   -0.2167    0.0000 O   0  0  0  0  0  0  0  0  0  0  0  0
    0.2667   -1.3417    0.0000 O   0  0  0  0  0  0  0  0  0  0  0  0
   -1.0333   -0.5917    0.0000 O   0  0  0  0  0  0  0  0  0  0  0  0
    4.8250   -1.7167    0.0000 O   0  0  0  0  0  0  0  0  0  0  0  0
    5.4750   -0.5917    0.0000 C   0  0  0  0  0  0  0  0  0  0  0  0
   -1.6833    0.5333    0.0000 C   0  0  0  0  0  0  0  0  0  0  0  0
    3.5292   -2.4667    0.0000 O   0  0  0  0  0  0  0  0  0  0  0  0
    6.1250   -0.2167    0.0000 C   0  0  0  0  0  0  0  0  0  0  0  0
   -2.3333    0.9083    0.0000 C   0  0  0  0  0  0  0  0  0  0  0  0
   -1.0250   -1.3417    0.0000 C   0  0  0  0  0  0  0  0  0  0  0  0
    4.8250   -2.4667    0.0000 C   0  0  0  0  0  0  0  0  0  0  0  0
    2.8792   -2.8417    0.0000 C   0  0  0  0  0  0  0  0  0  0  0  0
    6.7750   -0.5917    0.0000 C   0  0  0  0  0  0  0  0  0  0  0  0
    6.1250    0.5333    0.0000 C   0  0  0  0  0  0  0  0  0  0  0  0
   -2.3333    1.6583    0.0000 C   0  0  0  0  0  0  0  0  0  0  0  0
   -2.9833    0.5333    0.0000 C   0  0  0  0  0  0  0  0  0  0  0  0
    6.7750    0.9083    0.0000 C   0  0  0  0  0  0  0  0  0  0  0  0
   -2.9833    2.0333    0.0000 C   0  0  0  0  0  0  0  0  0  0  0  0
   -3.6333    0.9083    0.0000 C   0  0  0  0  0  0  0  0  0  0  0  0
    7.4250   -0.2167    0.0000 C   0  0  0  0  0  0  0  0  0  0  0  0
   -3.6333    1.6583    0.0000 C   0  0  0  0  0  0  0  0  0  0  0  0
    7.4250    0.5333    0.0000 C   0  0  0  0  0  0  0  0  0  0  0  0
  2  1  1  0
  3  2  1  0
  4  1  2  0
  5  1  1  0
  6  3  1  0
  7  4  1  0
  8  9  1  0
  9  5  1  0
 10 12  1  0
 11 14  2  0
 12  5  2  0
 13 15  2  0
 14 16  1  0
 15  6  1  0
 16  6  2  0
 17  2  2  0
 18 10  1  0
 19 13  1  0
 20  4  1  0
 21  7  1  0
 22 11  1  0
 23 19  1  0
 24 18  1  0
 25 14  1  0
 26 23  1  0
 27 24  1  0
 28 21  1  0
 29 22  1  0
 30 25  1  0
 31 26  2  0
 32 26  1  0
 33 27  2  0
 34 27  1  0
 35 32  2  0
 36 33  1  0
 37 34  2  0
 38 31  1  0
 39 37  1  0
 40 35  1  0
  7 10  2  0
  8  3  2  0
 13 11  1  0
 39 36  2  0
 40 38  2  0
M  END
>  <ID>  (2251) 


>  <MOLENAME>  (2251) 
IRIGENIN. DIBENZYL ETHER

>  <therap>  (2251) 
nan

>  <ref>  (2251) 
nan

>  <cas#>  (2251) 
nan

>  <source>  (2251) 
derivative of Irigenin

>  <status>  (2251) 
undetermined activity

>  <tradename>  (2251) 
nan

>  <SMILES>  (2251) 
COc1c(OC)c(OCc2ccccc2)cc(-c2coc3cc(OCc4ccccc4)c(OC)c(O)c3c2=O)c1

>  <standardized_failed>  (2251) 
False

$$$$

     RDKit          2D

  8  8  0  0  0  0  0  0  0  0999 V2000
    3.9833   -0.5125    0.0000 C   0  0  0  0  0  0  0  0  0  0  0  0
    3.2125   -1.7500    0.0000 N   0  0  0  0  0  0  0  0  0  0  0  0
    3.2792   -0.9333    0.0000 C   0  0  0  0  0  0  0  0  0  0  0  0
    3.9833    0.3375    0.0000 O   0  0  0  0  0  0  0  0  0  0  0  0
    4.6917   -0.9250    0.0000 O   0  0  0  0  0  0  0  0  0  0  0  0
    2.4083   -1.9292    0.0000 C   0  0  0  0  0  0  0  0  0  0  0  0
    2.5250   -0.6042    0.0000 C   0  0  0  0  0  0  0  0  0  0  0  0
    1.9958   -1.2083    0.0000 C   0  0  0  0  0  0  0  0  0  0  0  0
  2  3  1  0
  3  1  1  1
  4  1  2  0
  5  1  1  0
  6  2  1  0
  3  7  1  0
  8  7  1  0
  8  6  1  0
M  END
>  <ID>  (2252) 


>  <MOLENAME>  (2252) 
PROLINE (L)

>  <therap>  (2252) 
amino acid, nutrient

>  <ref>  (2252) 
nan

>  <cas#>  (2252) 
147-85-3

>  <source>  (2252) 
widespread in nature

>  <status>  (2252) 
USP, INN

>  <tradename>  (2252) 
nan

>  <SMILES>  (2252) 
O=C(O)[C@@H]1CCCN1

>  <standardized_failed>  (2252) 
False

$$$$

     RDKit          2D

 31 35  0  0  0  0  0  0  0  0999 V2000
    7.0417   -4.0875    0.0000 C   0  0  0  0  0  0  0  0  0  0  0  0
    7.0417   -3.1000    0.0000 C   0  0  0  0  0  0  0  0  0  0  0  0
    6.2042   -4.6000    0.0000 C   0  0  0  0  0  0  0  0  0  0  0  0
    4.4792   -4.6000    0.0000 C   0  0  0  0  0  0  0  0  0  0  0  0
    5.3167   -4.0875    0.0000 C   0  0  0  0  0  0  0  0  0  0  0  0
    4.4792   -5.5875    0.0000 C   0  0  0  0  0  0  0  0  0  0  0  0
    7.9042   -2.6167    0.0000 C   0  0  0  0  0  0  0  0  0  0  0  0
    3.6417   -6.0667    0.0000 C   0  0  0  0  0  0  0  0  0  0  0  0
    6.2042   -2.6167    0.0000 C   0  0  0  0  0  0  0  0  0  0  0  0
    8.7667   -3.1000    0.0000 C   0  0  0  0  0  0  0  0  0  0  0  0
    6.2042   -5.5542    0.0000 C   0  0  0  0  0  0  0  0  0  0  0  0
    5.3167   -3.1292    0.0000 C   0  0  0  0  0  0  0  0  0  0  0  0
    7.9042   -4.6000    0.0000 C   0  0  0  0  0  0  0  0  0  0  0  0
    3.6167   -4.1167    0.0000 C   0  0  0  0  0  0  0  0  0  0  0  0
    5.3417   -6.0667    0.0000 C   0  0  0  0  0  0  0  0  0  0  0  0
    7.8792   -1.6292    0.0000 C   0  0  0  0  0  0  0  0  0  0  0  0
    2.7792   -5.5875    0.0000 C   0  0  0  0  0  0  0  0  0  0  0  0
    8.7667   -4.0875    0.0000 C   0  0  0  0  0  0  0  0  0  0  0  0
    8.7417   -1.1500    0.0000 C   0  0  0  0  0  0  0  0  0  0  0  0
    9.6042   -2.6167    0.0000 C   0  0  0  0  0  0  0  0  0  0  0  0
    2.7667   -4.6000    0.0000 C   0  0  0  0  0  0  0  0  0  0  0  0
    9.6042   -1.6292    0.0000 C   0  0  0  0  0  0  0  0  0  0  0  0
    7.0125   -5.0292    0.0000 C   0  0  0  0  0  0  0  0  0  0  0  0
    6.2292   -3.8042    0.0000 C   0  0  0  0  0  0  0  0  0  0  0  0
    4.4667   -3.6875    0.0000 C   0  0  0  0  0  0  0  0  0  0  0  0
    4.5667   -6.5792    0.0000 C   0  0  0  0  0  0  0  0  0  0  0  0
    2.8667   -6.5292    0.0000 C   0  0  0  0  0  0  0  0  0  0  0  0
    1.9167   -6.1000    0.0000 O   0  0  0  0  0  0  0  0  0  0  0  0
    9.6167   -3.6292    0.0000 C   0  0  0  0  0  0  0  0  0  0  0  0
    7.8417   -0.7292    0.0000 C   0  0  0  0  0  0  0  0  0  0  0  0
    9.5667   -0.6375    0.0000 C   0  0  0  0  0  0  0  0  0  0  0  0
  2  1  1  0
  3  1  1  0
  4  5  1  0
  5  3  1  0
  6 15  1  0
  7  2  1  0
  8  6  1  0
  9  2  2  0
 10 18  1  0
 11  3  1  0
 12  5  1  0
 13  1  1  0
 14  4  1  0
 15 11  1  0
 16  7  1  0
 17  8  1  0
 18 13  1  0
 19 16  1  0
 20 10  1  0
 21 14  1  0
 22 20  1  0
  1 23  1  6
  3 24  1  1
  4 25  1  1
 26  8  1  0
 27  8  1  0
 17 28  1  1
 10 29  1  1
 30 19  1  0
 31 19  1  0
  7 10  1  0
 12  9  1  0
  6  4  1  0
 19 22  1  0
 17 21  1  0
M  END
>  <ID>  (2253) 


>  <MOLENAME>  (2253) 
beta-AMYRIN

>  <therap>  (2253) 
nan

>  <ref>  (2253) 
Phytochemistry 9: 1669 (1970)

>  <cas#>  (2253) 
559-70-6

>  <source>  (2253) 
widespread in plants

>  <status>  (2253) 
undetermined activity

>  <tradename>  (2253) 
nan

>  <SMILES>  (2253) 
CC1(C)CC[C@]2(C)CC[C@]3(C)C(=CCC4[C@@]5(C)CC[C@H](O)C(C)(C)C5CC[C@]43C)C2C1

>  <standardized_failed>  (2253) 
False

$$$$

     RDKit          2D

 16 17  0  0  0  0  0  0  0  0999 V2000
   -0.2208   -0.3875    0.0000 C   0  0  0  0  0  0  0  0  0  0  0  0
   -0.2208    1.0833    0.0000 C   0  0  0  0  0  0  0  0  0  0  0  0
    1.0542   -1.1375    0.0000 C   0  0  0  0  0  0  0  0  0  0  0  0
   -1.5208   -1.1375    0.0000 C   0  0  0  0  0  0  0  0  0  0  0  0
    1.0542    1.8333    0.0000 C   0  0  0  0  0  0  0  0  0  0  0  0
    2.3542   -0.3875    0.0000 C   0  0  0  0  0  0  0  0  0  0  0  0
   -1.5208    1.8333    0.0000 C   0  0  0  0  0  0  0  0  0  0  0  0
   -2.8208   -0.3875    0.0000 C   0  0  0  0  0  0  0  0  0  0  0  0
    2.3542    1.0833    0.0000 C   0  0  0  0  0  0  0  0  0  0  0  0
   -2.8208    1.0833    0.0000 C   0  0  0  0  0  0  0  0  0  0  0  0
    1.0542   -2.6375    0.0000 C   0  0  0  0  0  0  0  0  0  0  0  0
    2.3792    2.5208    0.0000 O   0  0  0  0  0  0  0  0  0  0  0  0
    1.0375    3.2083    0.0000 C   0  0  0  0  0  0  0  0  0  0  0  0
   -4.1458   -1.1042    0.0000 C   0  0  0  0  0  0  0  0  0  0  0  0
   -0.2208   -3.3875    0.0000 C   0  0  0  0  0  0  0  0  0  0  0  0
    2.3542   -3.3542    0.0000 C   0  0  0  0  0  0  0  0  0  0  0  0
  2  1  1  0
  3  1  1  0
  4  1  1  0
  5  2  1  0
  6  3  1  0
  7  2  1  0
  8  4  2  0
  9  6  1  0
 10  8  1  0
 11  3  1  0
 12  5  1  0
 13  5  1  0
 14  8  1  0
 15 11  1  0
 16 11  1  0
  7 10  1  0
  5  9  1  0
M  END
>  <ID>  (2254) 


>  <MOLENAME>  (2254) 
CADIN-4-EN-10-OL

>  <therap>  (2254) 
nan

>  <ref>  (2254) 
Tet Lett 1968: 1913

>  <cas#>  (2254) 
nan

>  <source>  (2254) 
Chamaecyparis spp and Juniperus spp.

>  <status>  (2254) 
undetermined activity

>  <tradename>  (2254) 
nan

>  <SMILES>  (2254) 
CC1=CC2C(C(C)C)CCC(C)(O)C2CC1

>  <standardized_failed>  (2254) 
False

$$$$

     RDKit          2D

 25 26  0  0  0  0  0  0  0  0999 V2000
    0.2792   -1.1750    0.0000 C   0  0  0  0  0  0  0  0  0  0  0  0
    1.7042   -1.1875    0.0000 C   0  0  0  0  0  0  0  0  0  0  0  0
    0.9917   -0.7625    0.0000 C   0  0  0  0  0  0  0  0  0  0  0  0
    0.2667   -2.0000    0.0000 C   0  0  0  0  0  0  0  0  0  0  0  0
    1.7042   -2.0000    0.0000 C   0  0  0  0  0  0  0  0  0  0  0  0
   -0.1458   -0.4625    0.0000 C   0  0  0  0  0  0  0  0  0  0  0  0
    0.9917   -2.4125    0.0000 C   0  0  0  0  0  0  0  0  0  0  0  0
    2.4167   -0.7750    0.0000 O   0  0  0  0  0  0  0  0  0  0  0  0
    2.4167    0.0500    0.0000 C   0  0  0  0  0  0  0  0  0  0  0  0
    3.1292    0.4625    0.0000 C   0  0  0  0  0  0  0  0  0  0  0  0
    5.2792    1.7125    0.0000 C   0  0  0  0  0  0  0  0  0  0  0  0
    3.8417    0.0500    0.0000 C   0  0  0  0  0  0  0  0  0  0  0  0
    5.9917    1.3000    0.0000 C   0  0  0  0  0  0  0  0  0  0  0  0
    4.5667    1.2875    0.0000 C   0  0  0  0  0  0  0  0  0  0  0  0
    0.2667    0.2625    0.0000 O   0  0  0  0  0  0  0  0  0  0  0  0
    1.7042    0.4625    0.0000 O   0  0  0  0  0  0  0  0  0  0  0  0
    4.5667    0.4625    0.0000 C   0  0  0  0  0  0  0  0  0  0  0  0
    5.9917    0.4625    0.0000 C   0  0  0  0  0  0  0  0  0  0  0  0
   -0.6833   -1.5750    0.0000 O   0  0  0  0  0  0  0  0  0  0  0  0
    2.3625   -2.4042    0.0000 O   0  0  0  0  0  0  0  0  0  0  0  0
   -0.9708   -0.4625    0.0000 O   0  0  0  0  0  0  0  0  0  0  0  0
    0.9792   -3.2375    0.0000 O   0  0  0  0  0  0  0  0  0  0  0  0
    5.2667    2.5375    0.0000 O   0  0  0  0  0  0  0  0  0  0  0  0
    5.2792    0.0500    0.0000 C   0  0  0  0  0  0  0  0  0  0  0  0
    6.7042    1.7125    0.0000 O   0  0  0  0  0  0  0  0  0  0  0  0
  2  3  1  0
  3  1  1  0
  4  1  1  0
  5  7  1  0
  1  6  1  0
  7  4  1  0
  2  8  1  1
  9  8  1  0
 10  9  1  0
 11 14  2  0
 12 10  2  0
 13 18  2  0
 14 17  1  0
 15  6  2  0
 16  9  2  0
 17 12  1  0
 18 24  1  0
  1 19  1  6
  5 20  1  6
 21  6  1  0
  7 22  1  6
 23 11  1  0
 24 17  2  0
 25 13  1  0
  2  5  1  0
 13 11  1  0
M  END
>  <ID>  (2255) 


>  <MOLENAME>  (2255) 
CHLOROGENIC ACID

>  <therap>  (2255) 
antioxidant, free radical scavenger

>  <ref>  (2255) 
Phytochemistry 15: 703 (1976); Biochem J 361: 57 (2002)

>  <cas#>  (2255) 
327-97-9

>  <source>  (2255) 
occurence in many plants

>  <status>  (2255) 
experimental

>  <tradename>  (2255) 
nan

>  <SMILES>  (2255) 
O=C(/C=C/c1ccc(O)c(O)c1)O[C@@H]1C[C@](O)(C(=O)O)C[C@@H](O)[C@H]1O

>  <standardized_failed>  (2255) 
False

$$$$

     RDKit          2D

 22 23  0  0  0  0  0  0  0  0999 V2000
    2.9250   -1.2542    0.0000 C   0  0  0  0  0  0  0  0  0  0  0  0
    4.3417   -2.4292    0.0000 C   0  0  0  0  0  0  0  0  0  0  0  0
    3.5792   -0.7417    0.0000 C   0  0  0  0  0  0  0  0  0  0  0  0
    2.9250   -2.0917    0.0000 C   0  0  0  0  0  0  0  0  0  0  0  0
    4.3667   -0.9625    0.0000 C   0  0  0  0  0  0  0  0  0  0  0  0
    4.7042   -1.7417    0.0000 C   0  0  0  0  0  0  0  0  0  0  0  0
    3.5542   -2.5875    0.0000 C   0  0  0  0  0  0  0  0  0  0  0  0
    2.1917   -0.8167    0.0000 C   0  0  0  0  0  0  0  0  0  0  0  0
    4.8125   -3.0667    0.0000 C   0  0  0  0  0  0  0  0  0  0  0  0
    1.4625   -1.2542    0.0000 C   0  0  0  0  0  0  0  0  0  0  0  0
    2.1917   -2.5167    0.0000 C   0  0  0  0  0  0  0  0  0  0  0  0
    3.4125    0.0833    0.0000 O   0  0  0  0  0  0  0  0  0  0  0  0
    5.5917   -2.9750    0.0000 O   0  0  0  0  0  0  0  0  0  0  0  0
    1.4625   -2.1000    0.0000 C   0  0  0  0  0  0  0  0  0  0  0  0
    4.9167   -0.3167    0.0000 O   0  0  0  0  0  0  0  0  0  0  0  0
    2.1917    0.0250    0.0000 O   0  0  0  0  0  0  0  0  0  0  0  0
    4.5042   -3.7792    0.0000 O   0  0  0  0  0  0  0  0  0  0  0  0
    0.7292   -0.8292    0.0000 O   0  0  0  0  0  0  0  0  0  0  0  0
    5.7542   -0.4750    0.0000 C   0  0  0  0  0  0  0  0  0  0  0  0
    2.9250    0.4458    0.0000 C   0  0  0  0  0  0  0  0  0  0  0  0
    3.7167   -3.8750    0.0000 C   0  0  0  0  0  0  0  0  0  0  0  0
    0.7292    0.0208    0.0000 C   0  0  0  0  0  0  0  0  0  0  0  0
  2  7  2  0
  3  1  1  0
  4  1  2  0
  5  3  1  0
  6  5  2  0
  7  4  1  0
  8  1  1  0
  9  2  1  0
 10  8  2  0
 11  4  1  0
 12  3  2  0
 13  9  2  0
 14 10  1  0
 15  5  1  0
 16  8  1  0
 17  9  1  0
 18 10  1  0
 19 15  1  0
 20 16  1  0
 21 17  1  0
 22 18  1  0
 11 14  2  0
  6  2  1  0
M  END
>  <ID>  (2256) 


>  <MOLENAME>  (2256) 
METHYL 7-DESOXYPURPUROGALLIN-7-CARBOXYLATE TRIMETHYL ETHER

>  <therap>  (2256) 
nan

>  <ref>  (2256) 
nan

>  <cas#>  (2256) 
nan

>  <source>  (2256) 
synthetic

>  <status>  (2256) 
undetermined activity

>  <tradename>  (2256) 
nan

>  <SMILES>  (2256) 
COC(=O)c1cc2c(c(OC)c(OC)cc2)c(=O)c(OC)c1

>  <standardized_failed>  (2256) 
False

$$$$

     RDKit          2D

 33 36  0  0  0  0  0  0  0  0999 V2000
    5.7125   -2.7542    0.0000 C   0  0  0  0  0  0  0  0  0  0  0  0
    6.5167   -3.2042    0.0000 C   0  0  0  0  0  0  0  0  0  0  0  0
    5.7125   -1.8167    0.0000 C   0  0  0  0  0  0  0  0  0  0  0  0
    7.3292   -2.7542    0.0000 C   0  0  0  0  0  0  0  0  0  0  0  0
    4.9125   -1.3542    0.0000 C   0  0  0  0  0  0  0  0  0  0  0  0
    4.1000   -1.8167    0.0000 C   0  0  0  0  0  0  0  0  0  0  0  0
    4.9125   -3.2042    0.0000 C   0  0  0  0  0  0  0  0  0  0  0  0
    4.1000   -2.7542    0.0000 C   0  0  0  0  0  0  0  0  0  0  0  0
    6.5167   -1.3542    0.0000 O   0  0  0  0  0  0  0  0  0  0  0  0
    7.3292   -1.8167    0.0000 C   0  0  0  0  0  0  0  0  0  0  0  0
    4.9125   -0.4167    0.0000 C   0  0  0  0  0  0  0  0  0  0  0  0
    3.2875   -1.3542    0.0000 O   0  0  0  0  0  0  0  0  0  0  0  0
    8.1375   -3.2042    0.0000 C   0  0  0  0  0  0  0  0  0  0  0  0
    3.2667   -3.2042    0.0000 C   0  0  0  0  0  0  0  0  0  0  0  0
    4.1167    0.0458    0.0000 C   0  0  0  0  0  0  0  0  0  0  0  0
    8.9375   -2.7542    0.0000 C   0  0  0  0  0  0  0  0  0  0  0  0
    3.2875   -0.4167    0.0000 C   0  0  0  0  0  0  0  0  0  0  0  0
    9.7500   -3.2042    0.0000 C   0  0  0  0  0  0  0  0  0  0  0  0
    2.4792   -2.7542    0.0000 C   0  0  0  0  0  0  0  0  0  0  0  0
    6.5167   -4.1417    0.0000 O   0  0  0  0  0  0  0  0  0  0  0  0
    9.7500   -4.1417    0.0000 C   0  0  0  0  0  0  0  0  0  0  0  0
    8.1375   -4.1417    0.0000 C   0  0  0  0  0  0  0  0  0  0  0  0
    1.6667   -3.2042    0.0000 C   0  0  0  0  0  0  0  0  0  0  0  0
    8.9375   -4.6042    0.0000 C   0  0  0  0  0  0  0  0  0  0  0  0
    4.9125   -4.1417    0.0000 O   0  0  0  0  0  0  0  0  0  0  0  0
   10.5792   -2.7542    0.0000 O   0  0  0  0  0  0  0  0  0  0  0  0
   10.5792   -4.6042    0.0000 O   0  0  0  0  0  0  0  0  0  0  0  0
    3.3000    0.4958    0.0000 C   0  0  0  0  0  0  0  0  0  0  0  0
    2.4167   -0.9042    0.0000 C   0  0  0  0  0  0  0  0  0  0  0  0
    0.8500   -2.7542    0.0000 C   0  0  0  0  0  0  0  0  0  0  0  0
    1.6500   -4.1417    0.0000 C   0  0  0  0  0  0  0  0  0  0  0  0
   11.3917   -3.2458    0.0000 C   0  0  0  0  0  0  0  0  0  0  0  0
   10.5958   -5.5542    0.0000 C   0  0  0  0  0  0  0  0  0  0  0  0
  2  1  1  0
  3  1  2  0
  4  2  1  0
  5  3  1  0
  6  8  1  0
  7  1  1  0
  8  7  2  0
  9  3  1  0
 10  4  2  0
 11  5  1  0
 12  6  1  0
 13  4  1  0
 14  8  1  0
 15 11  2  0
 16 13  2  0
 17 12  1  0
 18 16  1  0
 19 14  1  0
 20  2  2  0
 21 24  1  0
 22 13  1  0
 23 19  2  0
 24 22  2  0
 25  7  1  0
 26 18  1  0
 27 21  1  0
 28 17  1  0
 29 17  1  0
 30 23  1  0
 31 23  1  0
 32 26  1  0
 33 27  1  0
  9 10  1  0
  5  6  2  0
 15 17  1  0
 18 21  2  0
M  END
>  <ID>  (2257) 


>  <MOLENAME>  (2257) 
POMIFERIN DIMETHYL ETHER

>  <therap>  (2257) 
nan

>  <ref>  (2257) 
nan

>  <cas#>  (2257) 
nan

>  <source>  (2257) 
derivative of pomiferin

>  <status>  (2257) 
undetermined activity

>  <tradename>  (2257) 
nan

>  <SMILES>  (2257) 
COc1c(OC)cc(-c2coc3c(c(O)c(CC=C(C)C)c4c3C=CC(C)(C)O4)c2=O)cc1

>  <standardized_failed>  (2257) 
False

$$$$

     RDKit          2D

 18 20  0  0  0  0  0  0  0  0999 V2000
    6.0917   -3.1167    0.0000 C   0  0  0  0  0  0  0  0  0  0  0  0
    5.3792   -2.7125    0.0000 C   0  0  0  0  0  0  0  0  0  0  0  0
    6.1000   -3.9500    0.0000 C   0  0  0  0  0  0  0  0  0  0  0  0
    5.3875   -4.3667    0.0000 C   0  0  0  0  0  0  0  0  0  0  0  0
    4.6667   -3.1292    0.0000 C   0  0  0  0  0  0  0  0  0  0  0  0
    4.6667   -3.9542    0.0000 C   0  0  0  0  0  0  0  0  0  0  0  0
    6.8042   -2.7042    0.0000 C   0  0  0  0  0  0  0  0  0  0  0  0
    6.8167   -4.3542    0.0000 C   0  0  0  0  0  0  0  0  0  0  0  0
    5.3750   -1.8875    0.0000 O   0  0  0  0  0  0  0  0  0  0  0  0
    7.5250   -3.1042    0.0000 C   0  0  0  0  0  0  0  0  0  0  0  0
    5.3875   -5.1917    0.0000 O   0  0  0  0  0  0  0  0  0  0  0  0
    7.5292   -3.9417    0.0000 C   0  0  0  0  0  0  0  0  0  0  0  0
    6.8000   -1.8792    0.0000 O   0  0  0  0  0  0  0  0  0  0  0  0
    8.2375   -2.6875    0.0000 O   0  0  0  0  0  0  0  0  0  0  0  0
    3.9542   -2.7167    0.0000 C   0  0  0  0  0  0  0  0  0  0  0  0
    3.9542   -4.3667    0.0000 C   0  0  0  0  0  0  0  0  0  0  0  0
    3.2417   -3.1292    0.0000 C   0  0  0  0  0  0  0  0  0  0  0  0
    3.2417   -3.9542    0.0000 C   0  0  0  0  0  0  0  0  0  0  0  0
  2  1  1  0
  3  1  2  0
  4  3  1  0
  5  2  1  0
  6  4  1  0
  7  1  1  0
  8  3  1  0
  9  2  2  0
 10  7  2  0
 11  4  2  0
 12 10  1  0
 13  7  1  0
 14 10  1  0
 15  5  2  0
 16  6  2  0
 17 15  1  0
 18 16  1  0
 12  8  2  0
  6  5  1  0
 18 17  2  0
M  END
>  <ID>  (2258) 


>  <MOLENAME>  (2258) 
ALIZARIN

>  <therap>  (2258) 
antimutagen

>  <ref>  (2258) 
Carcinogenesis 6:237 (1985)

>  <cas#>  (2258) 
72-48-0

>  <source>  (2258) 
Rubia tinctorum

>  <status>  (2258) 
experimental

>  <tradename>  (2258) 
nan

>  <SMILES>  (2258) 
O=C1c2ccccc2C(=O)c2c1ccc(O)c2O

>  <standardized_failed>  (2258) 
False

$$$$

     RDKit          2D

 19 21  0  0  0  0  0  0  0  0999 V2000
    5.7167   -3.7292    0.0000 C   0  0  0  0  0  0  0  0  0  0  0  0
    5.7167   -2.9042    0.0000 C   0  0  0  0  0  0  0  0  0  0  0  0
    5.0042   -4.1500    0.0000 O   0  0  0  0  0  0  0  0  0  0  0  0
    5.0000   -2.4917    0.0000 C   0  0  0  0  0  0  0  0  0  0  0  0
    4.2917   -2.9125    0.0000 C   0  0  0  0  0  0  0  0  0  0  0  0
    4.2917   -3.7375    0.0000 C   0  0  0  0  0  0  0  0  0  0  0  0
    6.4292   -4.1292    0.0000 C   0  0  0  0  0  0  0  0  0  0  0  0
    4.9917   -1.6667    0.0000 O   0  0  0  0  0  0  0  0  0  0  0  0
    7.1417   -3.7250    0.0000 C   0  0  0  0  0  0  0  0  0  0  0  0
    6.4375   -4.9667    0.0000 C   0  0  0  0  0  0  0  0  0  0  0  0
    7.8667   -4.9542    0.0000 C   0  0  0  0  0  0  0  0  0  0  0  0
    7.1500   -5.3750    0.0000 C   0  0  0  0  0  0  0  0  0  0  0  0
    7.8542   -4.1292    0.0000 C   0  0  0  0  0  0  0  0  0  0  0  0
    3.5750   -2.5000    0.0000 C   0  0  0  0  0  0  0  0  0  0  0  0
    8.5792   -5.3667    0.0000 O   0  0  0  0  0  0  0  0  0  0  0  0
    3.5750   -4.1542    0.0000 C   0  0  0  0  0  0  0  0  0  0  0  0
    9.2917   -4.9542    0.0000 C   0  0  0  0  0  0  0  0  0  0  0  0
    2.8625   -2.9125    0.0000 C   0  0  0  0  0  0  0  0  0  0  0  0
    2.8625   -3.7417    0.0000 C   0  0  0  0  0  0  0  0  0  0  0  0
  2  1  2  0
  3  1  1  0
  4  2  1  0
  5  6  2  0
  6  3  1  0
  7  1  1  0
  8  4  2  0
  9  7  2  0
 10  7  1  0
 11 12  1  0
 12 10  2  0
 13  9  1  0
 14  5  1  0
 15 11  1  0
 16  6  1  0
 17 15  1  0
 18 19  1  0
 19 16  2  0
 11 13  2  0
  5  4  1  0
 18 14  2  0
M  END
>  <ID>  (2259) 


>  <MOLENAME>  (2259) 
4'-METHOXYFLAVONE

>  <therap>  (2259) 
nan

>  <ref>  (2259) 
nan

>  <cas#>  (2259) 
4143-74-2

>  <source>  (2259) 
Sapindus saponaria.

>  <status>  (2259) 
undetermined activity

>  <tradename>  (2259) 
nan

>  <SMILES>  (2259) 
COc1ccc(-c2cc(=O)c3c(cccc3)o2)cc1

>  <standardized_failed>  (2259) 
False

$$$$

     RDKit          2D

 12 12  0  0  0  0  0  0  0  0999 V2000
    3.1917   -2.2042    0.0000 C   0  0  0  0  0  0  0  0  0  0  0  0
    3.9042   -2.6167    0.0000 C   0  0  0  0  0  0  0  0  0  0  0  0
    2.4875   -2.6167    0.0000 C   0  0  0  0  0  0  0  0  0  0  0  0
    2.4875   -3.4417    0.0000 C   0  0  0  0  0  0  0  0  0  0  0  0
    3.9042   -3.4417    0.0000 C   0  0  0  0  0  0  0  0  0  0  0  0
    3.1917   -3.8542    0.0000 C   0  0  0  0  0  0  0  0  0  0  0  0
    3.1917   -1.3792    0.0000 O   0  0  0  0  0  0  0  0  0  0  0  0
    3.1917   -4.6792    0.0000 O   0  0  0  0  0  0  0  0  0  0  0  0
    1.7667   -2.2042    0.0000 O   0  0  0  0  0  0  0  0  0  0  0  0
    4.6250   -2.2042    0.0000 O   0  0  0  0  0  0  0  0  0  0  0  0
    5.3375   -2.6250    0.0000 C   0  0  0  0  0  0  0  0  0  0  0  0
    1.0542   -2.6250    0.0000 C   0  0  0  0  0  0  0  0  0  0  0  0
  2  1  1  0
  3  1  1  0
  4  3  2  0
  5  2  2  0
  6  4  1  0
  7  1  2  0
  8  6  2  0
  9  3  1  0
 10  2  1  0
 11 10  1  0
 12  9  1  0
  5  6  1  0
M  END
>  <ID>  (2260) 


>  <MOLENAME>  (2260) 
2.6-DIMETHOXYQUINONE

>  <therap>  (2260) 
antibacterial, induces dermatitis, mutagen

>  <ref>  (2260) 
nan

>  <cas#>  (2260) 
35069-70-6

>  <source>  (2260) 
Picrasmus & Ailanthus spp

>  <status>  (2260) 
experimental

>  <tradename>  (2260) 
nan

>  <SMILES>  (2260) 
COC1=CC(=O)C=C(OC)C1=O

>  <standardized_failed>  (2260) 
False

$$$$

     RDKit          2D

 44 48  0  0  0  0  0  0  0  0999 V2000
    2.9042   -0.0042    0.0000 O   0  0  0  0  0  0  0  0  0  0  0  0
    2.1500   -1.2625    0.0000 C   0  0  0  0  0  0  0  0  0  0  0  0
    2.1500   -0.4042    0.0000 C   0  0  0  0  0  0  0  0  0  0  0  0
    1.4417   -1.6625    0.0000 C   0  0  0  0  0  0  0  0  0  0  0  0
    3.6125   -0.4042    0.0000 C   0  0  0  0  0  0  0  0  0  0  0  0
    3.6125   -1.2625    0.0000 C   0  0  0  0  0  0  0  0  0  0  0  0
    4.3167   -0.0042    0.0000 C   0  0  0  0  0  0  0  0  0  0  0  0
    0.7292   -2.9625    0.0000 C   0  0  0  0  0  0  0  0  0  0  0  0
    4.3167   -2.5167    0.0000 C   0  0  0  0  0  0  0  0  0  0  0  0
    2.9042   -1.6625    0.0000 C   0  0  0  0  0  0  0  0  0  0  0  0
    5.0792   -2.9625    0.0000 C   0  0  0  0  0  0  0  0  0  0  0  0
    0.7292   -3.7792    0.0000 C   0  0  0  0  0  0  0  0  0  0  0  0
    5.7667    0.8083    0.0000 C   0  0  0  0  0  0  0  0  0  0  0  0
    6.4917   -3.7792    0.0000 C   0  0  0  0  0  0  0  0  0  0  0  0
    0.7167   -5.4375    0.0000 C   0  0  0  0  0  0  0  0  0  0  0  0
    1.4417   -2.5167    0.0000 O   0  0  0  0  0  0  0  0  0  0  0  0
    4.3167   -1.6625    0.0000 O   0  0  0  0  0  0  0  0  0  0  0  0
    5.0792    1.2000    0.0000 C   0  0  0  0  0  0  0  0  0  0  0  0
    5.7667   -0.0042    0.0000 C   0  0  0  0  0  0  0  0  0  0  0  0
    5.7667   -4.1792    0.0000 C   0  0  0  0  0  0  0  0  0  0  0  0
   -0.0208   -5.0167    0.0000 C   0  0  0  0  0  0  0  0  0  0  0  0
    6.4917   -2.9625    0.0000 C   0  0  0  0  0  0  0  0  0  0  0  0
    1.4250   -5.0167    0.0000 C   0  0  0  0  0  0  0  0  0  0  0  0
    4.3167    0.8083    0.0000 C   0  0  0  0  0  0  0  0  0  0  0  0
    5.0792   -0.4042    0.0000 C   0  0  0  0  0  0  0  0  0  0  0  0
    1.4417   -0.0042    0.0000 C   0  0  0  0  0  0  0  0  0  0  0  0
    0.7292   -1.2625    0.0000 C   0  0  0  0  0  0  0  0  0  0  0  0
    5.7667   -2.5167    0.0000 C   0  0  0  0  0  0  0  0  0  0  0  0
    5.0792   -3.7792    0.0000 C   0  0  0  0  0  0  0  0  0  0  0  0
   -0.0208   -4.1792    0.0000 C   0  0  0  0  0  0  0  0  0  0  0  0
    1.4417   -4.1792    0.0000 C   0  0  0  0  0  0  0  0  0  0  0  0
    0.7292   -0.4042    0.0000 C   0  0  0  0  0  0  0  0  0  0  0  0
    3.6125   -2.9625    0.0000 O   0  0  0  0  0  0  0  0  0  0  0  0
   -0.0208   -2.5167    0.0000 O   0  0  0  0  0  0  0  0  0  0  0  0
    6.4917    1.2000    0.0000 O   0  0  0  0  0  0  0  0  0  0  0  0
    7.2292   -4.1792    0.0000 O   0  0  0  0  0  0  0  0  0  0  0  0
    0.7167   -6.2417    0.0000 O   0  0  0  0  0  0  0  0  0  0  0  0
    7.2292   -2.5167    0.0000 O   0  0  0  0  0  0  0  0  0  0  0  0
    5.0792    2.0250    0.0000 O   0  0  0  0  0  0  0  0  0  0  0  0
    5.7667   -5.0167    0.0000 O   0  0  0  0  0  0  0  0  0  0  0  0
   -0.7250   -5.4375    0.0000 O   0  0  0  0  0  0  0  0  0  0  0  0
    6.4917   -0.4042    0.0000 O   0  0  0  0  0  0  0  0  0  0  0  0
    2.1500   -5.4375    0.0000 O   0  0  0  0  0  0  0  0  0  0  0  0
   -0.0208   -0.0042    0.0000 O   0  0  0  0  0  0  0  0  0  0  0  0
  2  3  2  0
  3  1  1  0
  4  2  1  0
  5  1  1  6
  6  5  1  0
  5  7  1  0
  8 16  1  0
  9 17  1  0
 10  6  1  0
 11  9  1  0
 12  8  1  0
 13 19  2  0
 14 20  2  0
 15 23  2  0
 16  4  1  0
  6 17  1  6
 18 24  2  0
 19 25  1  0
 20 29  1  0
 21 30  2  0
 22 28  2  0
 23 31  1  0
 24  7  1  0
 25  7  2  0
 26  3  1  0
 27 32  1  0
 28 11  1  0
 29 11  2  0
 30 12  1  0
 31 12  2  0
 32 26  2  0
 33  9  2  0
 34  8  2  0
 35 13  1  0
 36 14  1  0
 37 15  1  0
 38 22  1  0
 39 18  1  0
 40 20  1  0
 41 21  1  0
 42 19  1  0
 43 23  1  0
 44 32  1  0
 10  2  1  0
 18 13  1  0
 27  4  2  0
 22 14  1  0
 15 21  1  0
M  END
>  <ID>  (2261) 


>  <MOLENAME>  (2261) 
EPIGALLOCATECHIN 3.5-DIGALLATE

>  <therap>  (2261) 
nan

>  <ref>  (2261) 
nan

>  <cas#>  (2261) 
nan

>  <source>  (2261) 
tea pigment

>  <status>  (2261) 
undetermined activity

>  <tradename>  (2261) 
nan

>  <SMILES>  (2261) 
O=C(Oc1cc(O)cc2c1C[C@@H](OC(=O)c1cc(O)c(O)c(O)c1)[C@@H](c1cc(O)c(O)c(O)c1)O2)c1cc(O)c(O)c(O)c1

>  <standardized_failed>  (2261) 
False

$$$$

     RDKit          2D

 34 37  0  0  0  0  0  0  0  0999 V2000
    5.7167   -2.3417    0.0000 C   0  0  0  0  0  0  0  0  0  0  0  0
    6.5250   -2.8000    0.0000 C   0  0  0  0  0  0  0  0  0  0  0  0
    5.7167   -1.4125    0.0000 C   0  0  0  0  0  0  0  0  0  0  0  0
    7.3375   -2.3417    0.0000 C   0  0  0  0  0  0  0  0  0  0  0  0
    4.9167   -0.9417    0.0000 C   0  0  0  0  0  0  0  0  0  0  0  0
    4.1042   -1.4125    0.0000 C   0  0  0  0  0  0  0  0  0  0  0  0
    4.9167   -2.8000    0.0000 C   0  0  0  0  0  0  0  0  0  0  0  0
    4.1042   -2.3417    0.0000 C   0  0  0  0  0  0  0  0  0  0  0  0
    6.5250   -0.9417    0.0000 O   0  0  0  0  0  0  0  0  0  0  0  0
    7.3375   -1.4125    0.0000 C   0  0  0  0  0  0  0  0  0  0  0  0
    4.9167   -0.0125    0.0000 C   0  0  0  0  0  0  0  0  0  0  0  0
    3.2917   -0.9417    0.0000 O   0  0  0  0  0  0  0  0  0  0  0  0
    8.1417   -2.8000    0.0000 C   0  0  0  0  0  0  0  0  0  0  0  0
    3.2750   -2.8000    0.0000 C   0  0  0  0  0  0  0  0  0  0  0  0
    4.1250    0.4500    0.0000 C   0  0  0  0  0  0  0  0  0  0  0  0
    8.9417   -2.3417    0.0000 C   0  0  0  0  0  0  0  0  0  0  0  0
    3.2917   -0.0125    0.0000 C   0  0  0  0  0  0  0  0  0  0  0  0
    9.7542   -2.8000    0.0000 C   0  0  0  0  0  0  0  0  0  0  0  0
    2.4875   -2.3417    0.0000 C   0  0  0  0  0  0  0  0  0  0  0  0
    6.5250   -3.7292    0.0000 O   0  0  0  0  0  0  0  0  0  0  0  0
    9.7542   -3.7292    0.0000 C   0  0  0  0  0  0  0  0  0  0  0  0
    8.1417   -3.7292    0.0000 C   0  0  0  0  0  0  0  0  0  0  0  0
    1.6750   -2.8000    0.0000 C   0  0  0  0  0  0  0  0  0  0  0  0
    8.9417   -4.1917    0.0000 C   0  0  0  0  0  0  0  0  0  0  0  0
    4.9167   -3.7292    0.0000 O   0  0  0  0  0  0  0  0  0  0  0  0
   10.5542   -2.3250    0.0000 O   0  0  0  0  0  0  0  0  0  0  0  0
   10.5833   -4.1917    0.0000 O   0  0  0  0  0  0  0  0  0  0  0  0
    2.4250   -0.4917    0.0000 C   0  0  0  0  0  0  0  0  0  0  0  0
    3.3042    0.9000    0.0000 C   0  0  0  0  0  0  0  0  0  0  0  0
    1.6542   -3.7292    0.0000 C   0  0  0  0  0  0  0  0  0  0  0  0
    0.8542   -2.3417    0.0000 C   0  0  0  0  0  0  0  0  0  0  0  0
    5.7250   -4.1958    0.0000 C   0  0  0  0  0  0  0  0  0  0  0  0
   11.3625   -2.7875    0.0000 C   0  0  0  0  0  0  0  0  0  0  0  0
   10.6000   -5.1458    0.0000 C   0  0  0  0  0  0  0  0  0  0  0  0
  2  1  1  0
  3  1  2  0
  4  2  1  0
  5  3  1  0
  6  5  2  0
  7  1  1  0
  8  7  2  0
  9  3  1  0
 10  9  1  0
 11  5  1  0
 12  6  1  0
 13  4  1  0
 14  8  1  0
 15 11  2  0
 16 13  2  0
 17 12  1  0
 18 16  1  0
 19 14  1  0
 20  2  2  0
 21 24  1  0
 22 13  1  0
 23 19  2  0
 24 22  2  0
 25  7  1  0
 26 18  1  0
 27 21  1  0
 28 17  1  0
 29 17  1  0
 30 23  1  0
 31 23  1  0
 32 25  1  0
 33 26  1  0
 34 27  1  0
  8  6  1  0
  4 10  2  0
 15 17  1  0
 18 21  2  0
M  END
>  <ID>  (2262) 


>  <MOLENAME>  (2262) 
POMIFERIN TRIMETHYL ETHER

>  <therap>  (2262) 
derivative

>  <ref>  (2262) 
nan

>  <cas#>  (2262) 
nan

>  <source>  (2262) 
nan

>  <status>  (2262) 
undetermined activity

>  <tradename>  (2262) 
nan

>  <SMILES>  (2262) 
COc1c(OC)cc(-c2coc3c(c(OC)c(CC=C(C)C)c4c3C=CC(C)(C)O4)c2=O)cc1

>  <standardized_failed>  (2262) 
False

$$$$

     RDKit          2D

 20 22  0  0  0  0  0  0  0  0999 V2000
    1.6292   -2.8792    0.0000 C   0  0  0  0  0  0  0  0  0  0  0  0
    2.3417   -3.2917    0.0000 C   0  0  0  0  0  0  0  0  0  0  0  0
    3.0625   -2.0542    0.0000 C   0  0  0  0  0  0  0  0  0  0  0  0
    3.0625   -2.8792    0.0000 C   0  0  0  0  0  0  0  0  0  0  0  0
    1.6375   -2.0542    0.0000 C   0  0  0  0  0  0  0  0  0  0  0  0
    2.3500   -1.6417    0.0000 O   0  0  0  0  0  0  0  0  0  0  0  0
    0.9250   -3.2875    0.0000 C   0  0  0  0  0  0  0  0  0  0  0  0
    0.9250   -1.6375    0.0000 C   0  0  0  0  0  0  0  0  0  0  0  0
    0.2167   -2.8792    0.0000 C   0  0  0  0  0  0  0  0  0  0  0  0
    3.7792   -1.6542    0.0000 C   0  0  0  0  0  0  0  0  0  0  0  0
    0.2167   -2.0542    0.0000 C   0  0  0  0  0  0  0  0  0  0  0  0
    2.3375   -4.1167    0.0000 O   0  0  0  0  0  0  0  0  0  0  0  0
    3.7792   -0.8292    0.0000 C   0  0  0  0  0  0  0  0  0  0  0  0
    4.4917   -2.0750    0.0000 C   0  0  0  0  0  0  0  0  0  0  0  0
    0.9292   -4.1125    0.0000 O   0  0  0  0  0  0  0  0  0  0  0  0
    5.2167   -0.8417    0.0000 C   0  0  0  0  0  0  0  0  0  0  0  0
    5.2042   -1.6667    0.0000 C   0  0  0  0  0  0  0  0  0  0  0  0
    4.5042   -0.4250    0.0000 C   0  0  0  0  0  0  0  0  0  0  0  0
   -0.5000   -1.6417    0.0000 O   0  0  0  0  0  0  0  0  0  0  0  0
    5.9292   -0.4375    0.0000 O   0  0  0  0  0  0  0  0  0  0  0  0
  2  1  1  0
  3  6  1  0
  4  2  1  0
  5  1  2  0
  6  5  1  0
  7  1  1  0
  8  5  1  0
  9  7  2  0
 10  3  1  0
 11  9  1  0
 12  2  2  0
 13 10  2  0
 14 10  1  0
 15  7  1  0
 16 17  1  0
 17 14  2  0
 18 13  1  0
 19 11  1  0
 20 16  1  0
  4  3  2  0
 11  8  2  0
 18 16  2  0
M  END
>  <ID>  (2263) 


>  <MOLENAME>  (2263) 
APIGENIN

>  <therap>  (2263) 
antispasmodic, antineoplastic, topoisomerase I inhibitor

>  <ref>  (2263) 
J Chem Soc 1963: 1477; Eur J Cancer 32A: 146 (1996); J Biol Chem 271: 2262 (1996); Carcinogenesis 10: 2325 (1994)

>  <cas#>  (2263) 
520-36-5

>  <source>  (2263) 
parsley seed

>  <status>  (2263) 
experimental

>  <tradename>  (2263) 
nan

>  <SMILES>  (2263) 
O=c1cc(-c2ccc(O)cc2)oc2c1c(O)cc(O)c2

>  <standardized_failed>  (2263) 
False

$$$$

     RDKit          2D

 23 22  0  0  0  0  0  0  0  0999 V2000
   -2.9708    0.0708    0.0000 C   0  0  0  0  0  0  0  0  0  0  0  0
   -2.9750   -0.7500    0.0000 O   0  0  0  0  0  0  0  0  0  0  0  0
   -2.2500    0.4833    0.0000 O   0  0  0  0  0  0  0  0  0  0  0  0
   -0.1083    0.0708    0.0000 C   0  0  0  0  0  0  0  0  0  0  0  0
    9.1542    0.5083    0.0000 C   0  0  0  0  0  0  0  0  0  0  0  0
    9.8667    0.1000    0.0000 C   0  0  0  0  0  0  0  0  0  0  0  0
   -1.5333    0.0708    0.0000 C   0  0  0  0  0  0  0  0  0  0  0  0
   -0.8208    0.4833    0.0000 C   0  0  0  0  0  0  0  0  0  0  0  0
    0.6042    0.4833    0.0000 C   0  0  0  0  0  0  0  0  0  0  0  0
   -0.8250    1.3083    0.0000 O   0  0  0  0  0  0  0  0  0  0  0  0
    0.6000    1.3083    0.0000 O   0  0  0  0  0  0  0  0  0  0  0  0
   -3.6833    0.4958    0.0000 C   0  0  0  0  0  0  0  0  0  0  0  0
    8.4417    0.0958    0.0000 C   0  0  0  0  0  0  0  0  0  0  0  0
    1.3167    0.0750    0.0000 C   0  0  0  0  0  0  0  0  0  0  0  0
    7.7292    0.5083    0.0000 C   0  0  0  0  0  0  0  0  0  0  0  0
    2.0292    0.4875    0.0000 C   0  0  0  0  0  0  0  0  0  0  0  0
    4.8792    0.4958    0.0000 C   0  0  0  0  0  0  0  0  0  0  0  0
    5.5917    0.0875    0.0000 C   0  0  0  0  0  0  0  0  0  0  0  0
    6.3042    0.5000    0.0000 C   0  0  0  0  0  0  0  0  0  0  0  0
    7.0167    0.0958    0.0000 C   0  0  0  0  0  0  0  0  0  0  0  0
    2.7417    0.0833    0.0000 C   0  0  0  0  0  0  0  0  0  0  0  0
    3.4542    0.4958    0.0000 C   0  0  0  0  0  0  0  0  0  0  0  0
    4.1667    0.0833    0.0000 C   0  0  0  0  0  0  0  0  0  0  0  0
  2  1  2  0
  3  1  1  0
  4  8  1  0
  5 13  1  0
  6  5  2  0
  7  3  1  0
  8  7  1  0
  9  4  1  0
 10  8  1  0
 11  9  1  0
 12  1  1  0
 13 15  1  0
 14  9  1  0
 15 20  1  0
 16 14  1  0
 17 23  1  0
 18 17  1  0
 19 18  1  0
 20 19  1  0
 21 16  1  0
 22 21  1  0
 23 22  1  0
M  END
>  <ID>  (2264) 


>  <MOLENAME>  (2264) 
AVOCADENE ACETATE

>  <therap>  (2264) 
antifungal, plant growth inhibitor

>  <ref>  (2264) 
Ann Acad Brasil Cienc 42 (suplemento): 45 (1970); Tetrahedron 25: 4617 (1969); Phytochemistry 10: 1417 (1971); 31: 93 (1992)

>  <cas#>  (2264) 
24607-09-8

>  <source>  (2264) 
avocado seeds

>  <status>  (2264) 
experimental

>  <tradename>  (2264) 
nan

>  <SMILES>  (2264) 
C=CCCCCCCCCCCCC(O)CC(O)COC(C)=O

>  <standardized_failed>  (2264) 
False

$$$$

     RDKit          2D

  8  8  0  0  0  0  0  0  0  0999 V2000
    4.7417   -1.3625    0.0000 C   0  0  0  0  0  0  0  0  0  0  0  0
    4.0792   -1.8417    0.0000 N   0  0  0  0  0  0  0  0  0  0  0  0
    5.5292   -1.6167    0.0000 C   0  0  0  0  0  0  0  0  0  0  0  0
    4.4917   -0.5750    0.0000 C   0  0  0  0  0  0  0  0  0  0  0  0
    3.4042   -1.3625    0.0000 C   0  0  0  0  0  0  0  0  0  0  0  0
    3.6667   -0.5750    0.0000 C   0  0  0  0  0  0  0  0  0  0  0  0
    6.1417   -1.0667    0.0000 O   0  0  0  0  0  0  0  0  0  0  0  0
    5.7000   -2.4250    0.0000 C   0  0  0  0  0  0  0  0  0  0  0  0
  2  1  1  0
  3  1  1  0
  4  1  2  0
  5  2  1  0
  6  4  1  0
  7  3  2  0
  8  3  1  0
  5  6  2  0
M  END
>  <ID>  (2265) 


>  <MOLENAME>  (2265) 
2-ACETYLPYRROLE

>  <therap>  (2265) 
hepatoprotectant, organoleptic

>  <ref>  (2265) 
Agric Biol Chem 47:2397, 2925 (1983); 48:2847 (1984); 55:2117 (1991)

>  <cas#>  (2265) 
1072-83-9

>  <source>  (2265) 
Valeriana officinalis, Camellia thea, Paeonia moutan, Lycium chinense ,Streptomyces  A-5071

>  <status>  (2265) 
experimental

>  <tradename>  (2265) 
nan

>  <SMILES>  (2265) 
CC(=O)c1ccc[nH]1

>  <standardized_failed>  (2265) 
False

$$$$

     RDKit          2D

 21 22  0  0  0  0  0  0  0  0999 V2000
    4.5042   -2.2792    0.0000 C   0  0  0  0  0  0  0  0  0  0  0  0
    3.7917   -1.8667    0.0000 C   0  0  0  0  0  0  0  0  0  0  0  0
    3.0750   -2.2792    0.0000 C   0  0  0  0  0  0  0  0  0  0  0  0
    5.2250   -1.8542    0.0000 C   0  0  0  0  0  0  0  0  0  0  0  0
    4.5042   -3.1042    0.0000 C   0  0  0  0  0  0  0  0  0  0  0  0
    5.9500   -2.2625    0.0000 C   0  0  0  0  0  0  0  0  0  0  0  0
    3.0750   -3.1042    0.0000 C   0  0  0  0  0  0  0  0  0  0  0  0
    5.2125   -1.0250    0.0000 O   0  0  0  0  0  0  0  0  0  0  0  0
    3.7917   -3.5167    0.0000 C   0  0  0  0  0  0  0  0  0  0  0  0
    5.9542   -3.0917    0.0000 C   0  0  0  0  0  0  0  0  0  0  0  0
    6.6625   -1.8417    0.0000 C   0  0  0  0  0  0  0  0  0  0  0  0
    3.7917   -1.0417    0.0000 O   0  0  0  0  0  0  0  0  0  0  0  0
    2.3542   -1.8542    0.0000 O   0  0  0  0  0  0  0  0  0  0  0  0
    7.4000   -3.0667    0.0000 C   0  0  0  0  0  0  0  0  0  0  0  0
    7.3875   -2.2417    0.0000 C   0  0  0  0  0  0  0  0  0  0  0  0
    6.6667   -3.5042    0.0000 C   0  0  0  0  0  0  0  0  0  0  0  0
    2.3542   -3.5292    0.0000 O   0  0  0  0  0  0  0  0  0  0  0  0
    8.1417   -3.4625    0.0000 O   0  0  0  0  0  0  0  0  0  0  0  0
    8.1750   -4.2917    0.0000 C   0  0  0  0  0  0  0  0  0  0  0  0
    1.6375   -3.1167    0.0000 C   0  0  0  0  0  0  0  0  0  0  0  0
    8.9000   -4.6792    0.0000 C   0  0  0  0  0  0  0  0  0  0  0  0
  2  1  2  0
  3  2  1  0
  4  1  1  0
  5  1  1  0
  6  4  1  0
  7  9  1  0
  8  4  2  0
  9  5  2  0
 10  6  2  0
 11  6  1  0
 12  2  1  0
 13  3  1  0
 14 15  1  0
 15 11  2  0
 16 10  1  0
 17  7  1  0
 18 14  1  0
 19 18  1  0
 20 17  1  0
 21 19  1  0
  3  7  2  0
 16 14  2  0
M  END
>  <ID>  (2266) 


>  <MOLENAME>  (2266) 
2.3-DIHYDROXY-4-METHOXY-4'-ETHOXYBENZOPHENONE

>  <therap>  (2266) 
nan

>  <ref>  (2266) 
nan

>  <cas#>  (2266) 
nan

>  <source>  (2266) 
derivative

>  <status>  (2266) 
undetermined activity

>  <tradename>  (2266) 
nan

>  <SMILES>  (2266) 
CCOc1ccc(C(=O)c2c(O)c(O)c(OC)cc2)cc1

>  <standardized_failed>  (2266) 
False

$$$$

     RDKit          2D

 13 13  0  0  0  0  0  0  0  0999 V2000
    0.3792    0.5333    0.0000 C   0  0  0  0  0  0  0  0  0  0  0  0
   -0.2708    0.1583    0.0000 C   0  0  0  0  0  0  0  0  0  0  0  0
   -0.2708   -0.5917    0.0000 C   0  0  0  0  0  0  0  0  0  0  0  0
   -0.9208   -0.9667    0.0000 C   0  0  0  0  0  0  0  0  0  0  0  0
   -1.5708   -0.5917    0.0000 C   0  0  0  0  0  0  0  0  0  0  0  0
    0.3792    1.2833    0.0000 O   0  0  0  0  0  0  0  0  0  0  0  0
   -0.9208    0.5375    0.0000 C   0  0  0  0  0  0  0  0  0  0  0  0
   -1.5708    0.1583    0.0000 C   0  0  0  0  0  0  0  0  0  0  0  0
    1.0292    0.1583    0.0000 O   0  0  0  0  0  0  0  0  0  0  0  0
   -0.9208   -1.7167    0.0000 O   0  0  0  0  0  0  0  0  0  0  0  0
   -2.2208   -0.9667    0.0000 O   0  0  0  0  0  0  0  0  0  0  0  0
   -1.5708   -2.0917    0.0000 C   0  0  0  0  0  0  0  0  0  0  0  0
   -2.8708   -0.5917    0.0000 C   0  0  0  0  0  0  0  0  0  0  0  0
  2  1  1  0
  3  2  2  0
  4  3  1  0
  5  8  1  0
  6  1  2  0
  7  2  1  0
  8  7  2  0
  9  1  1  0
 10  4  1  0
 11  5  1  0
 12 10  1  0
 13 11  1  0
  5  4  2  0
M  END
>  <ID>  (2267) 


>  <MOLENAME>  (2267) 
VERATRIC ACID

>  <therap>  (2267) 
nan

>  <ref>  (2267) 
J Org Chem 10:527 (1945); Helv Chim Acta 59:949 (1976)

>  <cas#>  (2267) 
93-07-2

>  <source>  (2267) 
Verbascum thapsus, Sabadilla officinalis, Stephania abyssinica

>  <status>  (2267) 
undetermined activity

>  <tradename>  (2267) 
nan

>  <SMILES>  (2267) 
COc1c(OC)cc(C(=O)O)cc1

>  <standardized_failed>  (2267) 
False

$$$$

     RDKit          2D

 11  9  0  0  0  0  0  0  0  0999 V2000
    5.4250   -1.3792    0.0000 C   0  0  0  0  0  0  0  0  0  0  0  0
    5.4250   -0.5667    0.0000 O   0  0  0  0  0  0  0  0  0  0  0  0
    4.6542   -1.6542    0.0000 C   0  0  0  0  0  0  0  0  0  0  0  0
    6.1375   -1.7917    0.0000 O   0  0  0  0  0  0  0  0  0  0  0  0
    4.6833   -2.5083    0.0000 N   0  0  0  0  0  0  0  0  0  0  0  0
    0.8125   -1.8042    0.0000 Cl  0  0  0  0  0  0  0  0  0  0  0  0
    1.3875   -0.4792    0.0000 N   0  0  0  0  0  0  0  0  0  0  0  0
    1.9083   -1.1125    0.0000 C   0  0  0  0  0  0  0  0  0  0  0  0
    3.9750   -1.1917    0.0000 C   0  0  0  0  0  0  0  0  0  0  0  0
    2.6792   -0.8333    0.0000 C   0  0  0  0  0  0  0  0  0  0  0  0
    3.1958   -1.4708    0.0000 C   0  0  0  0  0  0  0  0  0  0  0  0
  2  1  2  0
  3  1  1  0
  4  1  1  0
  3  5  1  1
  7  8  1  0
  8 10  1  0
  3  9  1  0
 10 11  1  0
 11  9  1  0
M  END
>  <ID>  (2268) 


>  <MOLENAME>  (2268) 
LYSINE (L) HYDROCHLORIDE

>  <therap>  (2268) 
amino acid, nutrient

>  <ref>  (2268) 
Int. J. Pharm. (2011), 420(2), 290-296; Chem. Pharm. Bull. (2005), 53(12), 1536-1539

>  <cas#>  (2268) 
657-27-2

>  <source>  (2268) 
widespread in nature

>  <status>  (2268) 
USAN, INN

>  <tradename>  (2268) 
nan

>  <SMILES>  (2268) 
Cl.NCCCC[C@H](N)C(=O)O

>  <standardized_failed>  (2268) 
False

$$$$

     RDKit          2D

 31 34  0  0  0  0  0  0  0  0999 V2000
    2.7292   -0.6500    0.0000 C   0  0  0  0  0  0  0  0  0  0  0  0
    2.0167   -1.0542    0.0000 C   0  0  0  0  0  0  0  0  0  0  0  0
    1.2917   -0.6500    0.0000 C   0  0  0  0  0  0  0  0  0  0  0  0
    0.5667   -1.0542    0.0000 C   0  0  0  0  0  0  0  0  0  0  0  0
    2.7292    0.1708    0.0000 C   0  0  0  0  0  0  0  0  0  0  0  0
    0.5667   -1.9000    0.0000 C   0  0  0  0  0  0  0  0  0  0  0  0
   -0.1458   -2.3000    0.0000 C   0  0  0  0  0  0  0  0  0  0  0  0
    3.5292    0.4625    0.0000 C   0  0  0  0  0  0  0  0  0  0  0  0
    2.0167    0.6208    0.0000 C   0  0  0  0  0  0  0  0  0  0  0  0
    3.5292   -0.8917    0.0000 C   0  0  0  0  0  0  0  0  0  0  0  0
    1.2917    0.1708    0.0000 C   0  0  0  0  0  0  0  0  0  0  0  0
    2.0167   -1.9000    0.0000 C   0  0  0  0  0  0  0  0  0  0  0  0
   -0.1458   -0.6500    0.0000 C   0  0  0  0  0  0  0  0  0  0  0  0
    1.2917   -2.3000    0.0000 C   0  0  0  0  0  0  0  0  0  0  0  0
    4.0167   -0.2167    0.0000 C   0  0  0  0  0  0  0  0  0  0  0  0
   -0.8833   -1.9000    0.0000 C   0  0  0  0  0  0  0  0  0  0  0  0
   -0.8833   -1.0542    0.0000 C   0  0  0  0  0  0  0  0  0  0  0  0
    6.5292    0.3333    0.0000 C   0  0  0  0  0  0  0  0  0  0  0  0
    5.9792    0.9750    0.0000 C   0  0  0  0  0  0  0  0  0  0  0  0
    3.8167    1.2500    0.0000 C   0  0  0  0  0  0  0  0  0  0  0  0
    2.7417   -1.6292    0.0000 C   0  0  0  0  0  0  0  0  0  0  0  0
    0.5667   -0.2167    0.0000 C   0  0  0  0  0  0  0  0  0  0  0  0
    2.7292    1.0250    0.0000 C   0  0  0  0  0  0  0  0  0  0  0  0
   -0.7958   -2.6792    0.0000 C   0  0  0  0  0  0  0  0  0  0  0  0
    0.4792   -2.7292    0.0000 C   0  0  0  0  0  0  0  0  0  0  0  0
   -1.5833   -2.3375    0.0000 O   0  0  0  0  0  0  0  0  0  0  0  0
    5.1542    0.8250    0.0000 C   0  0  0  0  0  0  0  0  0  0  0  0
    4.6167    1.4208    0.0000 C   0  0  0  0  0  0  0  0  0  0  0  0
    6.2417   -0.4542    0.0000 C   0  0  0  0  0  0  0  0  0  0  0  0
    7.3417    0.4625    0.0000 C   0  0  0  0  0  0  0  0  0  0  0  0
    3.2667    1.8958    0.0000 C   0  0  0  0  0  0  0  0  0  0  0  0
  2  1  1  0
  3  2  2  0
  4  3  1  0
  5  1  1  0
  6 14  1  0
  7  6  1  0
  8  5  1  0
  9  5  1  0
 10  1  1  0
 11  9  1  0
 12  2  1  0
 13  4  1  0
 14 12  1  0
 15 10  1  0
 16  7  1  0
 17 13  1  0
 18 19  2  0
 19 27  1  0
 20  8  1  0
  1 21  1  6
 22  4  1  0
  5 23  1  1
 24  7  1  0
  7 25  1  0
 16 26  1  1
 27 28  1  0
 28 20  1  0
 29 18  1  0
 30 18  1  0
 31 20  1  0
  8 15  1  0
 11  3  1  0
  6  4  1  0
 16 17  1  0
M  END
>  <ID>  (2269) 


>  <MOLENAME>  (2269) 
LANOSTEROL

>  <therap>  (2269) 
nan

>  <ref>  (2269) 
nan

>  <cas#>  (2269) 
79-63-0

>  <source>  (2269) 
wool fat of sheep

>  <status>  (2269) 
undetermined activity

>  <tradename>  (2269) 
nan

>  <SMILES>  (2269) 
CC(C)=CCCC(C)C1CC[C@@]2(C)C3=C(CC[C@]12C)C1(C)CC[C@H](O)C(C)(C)C1CC3

>  <standardized_failed>  (2269) 
False

$$$$

     RDKit          2D

 30 34  0  0  0  0  0  0  0  0999 V2000
    7.2792   -1.7500    0.0000 C   0  0  0  0  0  0  0  0  0  0  0  0
    5.8417   -2.5875    0.0000 C   0  0  0  0  0  0  0  0  0  0  0  0
    7.2875   -2.5875    0.0000 C   0  0  0  0  0  0  0  0  0  0  0  0
    6.5542   -3.0000    0.0000 C   0  0  0  0  0  0  0  0  0  0  0  0
    5.8417   -1.7500    0.0000 C   0  0  0  0  0  0  0  0  0  0  0  0
    6.5625   -1.3292    0.0000 C   0  0  0  0  0  0  0  0  0  0  0  0
    6.5542   -3.8250    0.0000 C   0  0  0  0  0  0  0  0  0  0  0  0
    8.0750   -2.8375    0.0000 C   0  0  0  0  0  0  0  0  0  0  0  0
    5.1292   -2.9917    0.0000 C   0  0  0  0  0  0  0  0  0  0  0  0
    5.1292   -1.3375    0.0000 C   0  0  0  0  0  0  0  0  0  0  0  0
    6.5542   -5.4667    0.0000 C   0  0  0  0  0  0  0  0  0  0  0  0
    8.5625   -2.1625    0.0000 O   0  0  0  0  0  0  0  0  0  0  0  0
    8.0750   -1.4917    0.0000 C   0  0  0  0  0  0  0  0  0  0  0  0
    5.8375   -5.0500    0.0000 C   0  0  0  0  0  0  0  0  0  0  0  0
    7.2667   -5.0500    0.0000 C   0  0  0  0  0  0  0  0  0  0  0  0
    4.4167   -1.7542    0.0000 C   0  0  0  0  0  0  0  0  0  0  0  0
    4.4167   -2.5792    0.0000 C   0  0  0  0  0  0  0  0  0  0  0  0
    5.8417   -4.2292    0.0000 C   0  0  0  0  0  0  0  0  0  0  0  0
    7.2667   -4.2292    0.0000 C   0  0  0  0  0  0  0  0  0  0  0  0
    3.6292   -2.8375    0.0000 O   0  0  0  0  0  0  0  0  0  0  0  0
    3.6292   -1.5000    0.0000 O   0  0  0  0  0  0  0  0  0  0  0  0
    3.1500   -2.1667    0.0000 C   0  0  0  0  0  0  0  0  0  0  0  0
    8.3292   -3.6250    0.0000 O   0  0  0  0  0  0  0  0  0  0  0  0
    6.6042   -0.4792    0.0000 O   0  0  0  0  0  0  0  0  0  0  0  0
    6.5542   -6.2917    0.0000 O   0  0  0  0  0  0  0  0  0  0  0  0
    5.1250   -5.4625    0.0000 O   0  0  0  0  0  0  0  0  0  0  0  0
    7.9875   -5.4625    0.0000 O   0  0  0  0  0  0  0  0  0  0  0  0
    5.8375   -6.7042    0.0000 C   0  0  0  0  0  0  0  0  0  0  0  0
    8.7000   -5.0500    0.0000 C   0  0  0  0  0  0  0  0  0  0  0  0
    4.4125   -5.0500    0.0000 C   0  0  0  0  0  0  0  0  0  0  0  0
  2  5  2  0
  3  1  1  0
  4  3  1  0
  5  6  1  0
  1  6  1  0
  4  7  1  6
  3  8  1  1
  9  2  1  0
 10  5  1  0
 11 15  2  0
 12 13  1  0
  1 13  1  1
 14 18  2  0
 15 19  1  0
 16 10  2  0
 17 16  1  0
 18  7  1  0
 19  7  2  0
 20 17  1  0
 21 16  1  0
 22 21  1  0
 23  8  2  0
  6 24  1  6
 25 11  1  0
 26 14  1  0
 27 15  1  0
 28 25  1  0
 29 27  1  0
 30 26  1  0
 12  8  1  0
  4  2  1  0
 17  9  2  0
 11 14  1  0
 20 22  1  0
M  END
>  <ID>  (2270) 


>  <MOLENAME>  (2270) 
PICROPODOPHYLLIN

>  <therap>  (2270) 
Insulin growth factor 1 receptor inhibitor, antineoplastic

>  <ref>  (2270) 
JACS 73: 2909 (1951); 75: 1308 (1953); J Med Chem 32: 604 (1989); Pharmacol Ther 59: 163 (1993); Cancer Res 64:236 (2004); Int. J. Cancer 121:1857 (2007)

>  <cas#>  (2270) 
477-47-4

>  <source>  (2270) 
Podophylum peltatum; epimer of podophyllotoxin; 10% cytotoxicity of podophyllotoxin

>  <status>  (2270) 
experimental

>  <tradename>  (2270) 
nan

>  <SMILES>  (2270) 
COc1c(OC)c(OC)cc([C@@H]2c3c(cc4OCOc4c3)[C@H](O)[C@H]3COC(=O)[C@@H]23)c1

>  <standardized_failed>  (2270) 
False

$$$$

     RDKit          2D

 26 30  0  0  0  0  0  0  0  0999 V2000
    4.0917   -2.8375    0.0000 C   0  0  0  0  0  0  0  0  0  0  0  0
    1.9417   -4.0542    0.0000 C   0  0  0  0  0  0  0  0  0  0  0  0
    4.1000   -1.5125    0.0000 N   0  0  0  0  0  0  0  0  0  0  0  0
    1.9375   -4.8792    0.0000 C   0  0  0  0  0  0  0  0  0  0  0  0
    4.0792   -3.6625    0.0000 C   0  0  0  0  0  0  0  0  0  0  0  0
    4.8667   -2.5917    0.0000 C   0  0  0  0  0  0  0  0  0  0  0  0
    2.6542   -3.6417    0.0000 C   0  0  0  0  0  0  0  0  0  0  0  0
    3.3625   -4.0667    0.0000 C   0  0  0  0  0  0  0  0  0  0  0  0
    3.6125   -2.1750    0.0000 C   0  0  0  0  0  0  0  0  0  0  0  0
    4.8750   -1.7667    0.0000 C   0  0  0  0  0  0  0  0  0  0  0  0
    2.6500   -5.2917    0.0000 C   0  0  0  0  0  0  0  0  0  0  0  0
    3.3792   -2.4167    0.0000 C   0  0  0  0  0  0  0  0  0  0  0  0
    3.3667   -4.8875    0.0000 C   0  0  0  0  0  0  0  0  0  0  0  0
    1.2292   -5.2917    0.0000 C   0  0  0  0  0  0  0  0  0  0  0  0
    2.6625   -2.8167    0.0000 C   0  0  0  0  0  0  0  0  0  0  0  0
    1.2292   -3.6417    0.0000 C   0  0  0  0  0  0  0  0  0  0  0  0
    4.8625   -3.9250    0.0000 C   0  0  0  0  0  0  0  0  0  0  0  0
    5.3500   -3.2625    0.0000 C   0  0  0  0  0  0  0  0  0  0  0  0
    0.5167   -4.8792    0.0000 C   0  0  0  0  0  0  0  0  0  0  0  0
   -0.1958   -5.2917    0.0000 N   0  0  0  0  0  0  0  0  0  0  0  0
    0.5167   -4.0542    0.0000 C   0  0  0  0  0  0  0  0  0  0  0  0
    3.8417   -0.7292    0.0000 C   0  0  0  0  0  0  0  0  0  0  0  0
    1.9375   -3.2292    0.0000 C   0  0  0  0  0  0  0  0  0  0  0  0
    5.5417   -1.2917    0.0000 C   0  0  0  0  0  0  0  0  0  0  0  0
   -0.1958   -6.1167    0.0000 C   0  0  0  0  0  0  0  0  0  0  0  0
   -0.9083   -4.8792    0.0000 C   0  0  0  0  0  0  0  0  0  0  0  0
  2  7  1  0
  3  9  1  0
  4  2  1  0
  5  1  1  0
  6  1  1  0
  7 15  1  0
  8  5  1  0
  1  9  1  1
  6 10  1  0
 11 13  1  0
 12  1  1  0
 13  8  1  0
 14  4  1  0
 15 12  1  0
 16  2  1  0
 17  5  1  0
  6 18  1  1
 19 21  1  0
 19 20  1  1
 21 16  1  0
 22  3  1  0
  2 23  1  1
 10 24  1  1
 25 20  1  0
 26 20  1  0
 18 17  1  0
  3 10  1  0
  7  8  1  0
 11  4  2  0
 19 14  1  0
M  END
>  <ID>  (2271) 


>  <MOLENAME>  (2271) 
CONESSINE

>  <therap>  (2271) 
antiamebic, antibacterial, antineoplastic, anesthetic (local)

>  <ref>  (2271) 
Br J Pharmacol 3:237 (1948); J Chem Soc 1953:1102; Chem & Ind 1957:1510; Ann 619:96 (1958); Eur J Med Chem 5:129 (1970)

>  <cas#>  (2271) 
5913-82-6, 546-06-5 [conessine]

>  <source>  (2271) 
Holarrhena spp

>  <status>  (2271) 
experimental

>  <tradename>  (2271) 
nan

>  <SMILES>  (2271) 
C[C@H]1[C@H]2CCC3C4CC=C5C[C@@H](N(C)C)CC[C@]5(C)C4CC[C@@]32CN1C

>  <standardized_failed>  (2271) 
False

$$$$

     RDKit          2D

 26 28  0  0  0  0  0  0  0  0999 V2000
    5.3250   -1.8542    0.0000 C   0  0  0  0  0  0  0  0  0  0  0  0
    6.0292   -2.2792    0.0000 C   0  0  0  0  0  0  0  0  0  0  0  0
    4.6125   -2.2667    0.0000 C   0  0  0  0  0  0  0  0  0  0  0  0
    4.6042   -3.0917    0.0000 C   0  0  0  0  0  0  0  0  0  0  0  0
    6.0375   -3.0917    0.0000 C   0  0  0  0  0  0  0  0  0  0  0  0
    5.3292   -1.0292    0.0000 C   0  0  0  0  0  0  0  0  0  0  0  0
    5.3167   -3.5042    0.0000 C   0  0  0  0  0  0  0  0  0  0  0  0
    6.7500   -1.8667    0.0000 O   0  0  0  0  0  0  0  0  0  0  0  0
    6.7625   -1.0417    0.0000 C   0  0  0  0  0  0  0  0  0  0  0  0
    3.9000   -3.5042    0.0000 C   0  0  0  0  0  0  0  0  0  0  0  0
    6.0500   -0.6292    0.0000 C   0  0  0  0  0  0  0  0  0  0  0  0
    3.9000   -1.8542    0.0000 C   0  0  0  0  0  0  0  0  0  0  0  0
    4.6167   -0.6167    0.0000 O   0  0  0  0  0  0  0  0  0  0  0  0
    5.3167   -2.6792    0.0000 O   0  0  0  0  0  0  0  0  0  0  0  0
    7.5875   -1.0417    0.0000 C   0  0  0  0  0  0  0  0  0  0  0  0
    3.1875   -3.0917    0.0000 C   0  0  0  0  0  0  0  0  0  0  0  0
    3.1875   -2.2667    0.0000 C   0  0  0  0  0  0  0  0  0  0  0  0
    6.0250   -1.4542    0.0000 C   0  0  0  0  0  0  0  0  0  0  0  0
    6.7500   -3.5042    0.0000 O   0  0  0  0  0  0  0  0  0  0  0  0
    4.6042   -1.4417    0.0000 C   0  0  0  0  0  0  0  0  0  0  0  0
    5.3125   -4.3292    0.0000 O   0  0  0  0  0  0  0  0  0  0  0  0
    8.0000   -1.7542    0.0000 C   0  0  0  0  0  0  0  0  0  0  0  0
    3.8917   -1.0292    0.0000 O   0  0  0  0  0  0  0  0  0  0  0  0
    6.9750   -0.2417    0.0000 C   0  0  0  0  0  0  0  0  0  0  0  0
    4.4792   -4.0792    0.0000 C   0  0  0  0  0  0  0  0  0  0  0  0
    3.4792   -4.2167    0.0000 C   0  0  0  0  0  0  0  0  0  0  0  0
  2  1  1  0
  3  1  1  0
  4  3  1  0
  5  2  1  0
  6  1  1  0
  7  4  1  0
  8  2  1  0
  9 11  1  0
 10  4  1  0
 11  6  1  0
 12  3  1  0
 13  6  2  0
  1 14  1  6
  9 15  1  0
 16 17  1  0
 17 12  1  0
  2 18  1  1
  5 19  1  1
  3 20  1  1
  7 21  1  1
 22 15  2  0
 12 23  1  6
  9 24  1  1
 25 10  1  0
 26 10  1  0
  8  9  1  0
  5  7  1  0
 10 16  1  0
M  END
>  <ID>  (2272) 


>  <MOLENAME>  (2272) 
DESACETYLCOLFORSIN

>  <therap>  (2272) 
nan

>  <ref>  (2272) 
nan

>  <cas#>  (2272) 
64657-20-1

>  <source>  (2272) 
Coleus forskohlii; 8,13-epoxy-1,6,7,9-tetrahydroxy-14-labden-11-one

>  <status>  (2272) 
undetermined activity

>  <tradename>  (2272) 
nan

>  <SMILES>  (2272) 
C=C[C@@]1(C)CC(=O)[C@@]2(O)[C@](C)(O1)[C@@H](O)[C@@H](O)C1C(C)(C)CC[C@H](O)[C@@]12C

>  <standardized_failed>  (2272) 
False

$$$$

     RDKit          2D

 11 12  0  0  0  0  0  0  0  0999 V2000
    2.3750   -3.1667    0.0000 C   0  0  0  0  0  0  0  0  0  0  0  0
    2.3792   -2.3375    0.0000 C   0  0  0  0  0  0  0  0  0  0  0  0
    3.1750   -2.0875    0.0000 O   0  0  0  0  0  0  0  0  0  0  0  0
    3.1625   -3.4292    0.0000 C   0  0  0  0  0  0  0  0  0  0  0  0
    3.6542   -2.7625    0.0000 C   0  0  0  0  0  0  0  0  0  0  0  0
    1.6667   -3.5750    0.0000 C   0  0  0  0  0  0  0  0  0  0  0  0
    1.6667   -1.9250    0.0000 C   0  0  0  0  0  0  0  0  0  0  0  0
    0.9542   -3.1667    0.0000 O   0  0  0  0  0  0  0  0  0  0  0  0
    4.4792   -2.7667    0.0000 O   0  0  0  0  0  0  0  0  0  0  0  0
    0.9542   -2.3417    0.0000 C   0  0  0  0  0  0  0  0  0  0  0  0
    1.6667   -4.4000    0.0000 O   0  0  0  0  0  0  0  0  0  0  0  0
  2  1  1  0
  3  2  1  0
  4  1  2  0
  5  4  1  0
  6  1  1  0
  7  2  2  0
  8  6  1  0
  9  5  2  0
 10  8  1  0
 11  6  1  0
  5  3  1  0
 10  7  1  0
M  END
>  <ID>  (2273) 


>  <MOLENAME>  (2273) 
PATULIN

>  <therap>  (2273) 
antibacterial

>  <ref>  (2273) 
J Chem Soc 1944: 415

>  <cas#>  (2273) 
149-29-1

>  <source>  (2273) 
Aspergillus clavatus, Penicillium patulum

>  <status>  (2273) 
experimental

>  <tradename>  (2273) 
nan

>  <SMILES>  (2273) 
O=C1C=C2C(=CCOC2O)O1

>  <standardized_failed>  (2273) 
False

$$$$

     RDKit          2D

 24 23  0  0  0  0  0  0  0  0999 V2000
    6.4750   -2.0292    0.0000 C   0  0  0  0  0  0  0  0  0  0  0  0
    7.1875   -2.4375    0.0000 O   0  0  0  0  0  0  0  0  0  0  0  0
    7.1875   -0.7875    0.0000 O   0  0  0  0  0  0  0  0  0  0  0  0
    5.0500   -2.0292    0.0000 O   0  0  0  0  0  0  0  0  0  0  0  0
    6.4667   -1.2042    0.0000 C   0  0  0  0  0  0  0  0  0  0  0  0
    5.7625   -2.4417    0.0000 C   0  0  0  0  0  0  0  0  0  0  0  0
    4.3375   -2.4417    0.0000 C   0  0  0  0  0  0  0  0  0  0  0  0
    3.6250   -2.0375    0.0000 C   0  0  0  0  0  0  0  0  0  0  0  0
    0.7750    1.2375    0.0000 C   0  0  0  0  0  0  0  0  0  0  0  0
    0.0625    1.6458    0.0000 C   0  0  0  0  0  0  0  0  0  0  0  0
    2.1917   -2.0417    0.0000 C   0  0  0  0  0  0  0  0  0  0  0  0
   -0.6500   -1.2292    0.0000 C   0  0  0  0  0  0  0  0  0  0  0  0
   -1.3625   -0.8167    0.0000 C   0  0  0  0  0  0  0  0  0  0  0  0
   -1.3625   -0.0000    0.0000 C   0  0  0  0  0  0  0  0  0  0  0  0
   -2.0750    0.4083    0.0000 C   0  0  0  0  0  0  0  0  0  0  0  0
   -2.0750    1.2333    0.0000 C   0  0  0  0  0  0  0  0  0  0  0  0
   -1.3625    1.6458    0.0000 C   0  0  0  0  0  0  0  0  0  0  0  0
   -0.6500    1.2333    0.0000 C   0  0  0  0  0  0  0  0  0  0  0  0
    2.9125   -2.4500    0.0000 C   0  0  0  0  0  0  0  0  0  0  0  0
   -0.6500   -2.0500    0.0000 C   0  0  0  0  0  0  0  0  0  0  0  0
    0.0625   -2.4542    0.0000 C   0  0  0  0  0  0  0  0  0  0  0  0
    0.7750   -2.0417    0.0000 C   0  0  0  0  0  0  0  0  0  0  0  0
    1.4875   -2.4542    0.0000 C   0  0  0  0  0  0  0  0  0  0  0  0
    1.4875    1.6500    0.0000 C   0  0  0  0  0  0  0  0  0  0  0  0
  2  1  1  0
  3  5  1  0
  4  6  1  0
  5  1  1  0
  6  1  1  0
  7  4  1  0
  8  7  1  0
  9 10  1  0
 10 18  1  0
 11 19  1  0
 12 20  1  0
 13 12  1  0
 14 13  1  0
 15 14  1  0
 16 15  1  0
 17 16  1  0
 18 17  1  0
 19  8  1  0
 20 21  1  0
 21 22  1  0
 22 23  1  0
 23 11  1  0
 24  9  1  0
M  END
>  <ID>  (2274) 


>  <MOLENAME>  (2274) 
BATYL ALCOHOL

>  <therap>  (2274) 
nan

>  <ref>  (2274) 
nan

>  <cas#>  (2274) 
544-62-7

>  <source>  (2274) 
fish oils

>  <status>  (2274) 
undetermined activity

>  <tradename>  (2274) 
nan

>  <SMILES>  (2274) 
CCCCCCCCCCCCCCCCCCOCC(O)CO

>  <standardized_failed>  (2274) 
False

$$$$

     RDKit          2D

 10  9  0  0  0  0  0  0  0  0999 V2000
    3.3042   -1.8667    0.0000 C   0  0  0  0  0  0  0  0  0  0  0  0
    2.5917   -1.4542    0.0000 C   0  0  0  0  0  0  0  0  0  0  0  0
    3.3042   -2.6917    0.0000 O   0  0  0  0  0  0  0  0  0  0  0  0
   -0.2583   -1.4542    0.0000 C   0  0  0  0  0  0  0  0  0  0  0  0
   -0.9708   -1.8667    0.0000 C   0  0  0  0  0  0  0  0  0  0  0  0
    2.5917   -0.6292    0.0000 N   0  0  0  0  0  0  0  0  0  0  0  0
    4.0167   -1.4542    0.0000 O   0  0  0  0  0  0  0  0  0  0  0  0
    1.1667   -1.4542    0.0000 S   0  0  0  0  0  0  0  0  0  0  0  0
    1.8792   -1.8667    0.0000 C   0  0  0  0  0  0  0  0  0  0  0  0
    0.4542   -1.8667    0.0000 C   0  0  0  0  0  0  0  0  0  0  0  0
  2  1  1  0
  3  1  2  0
  4 10  1  0
  5  4  2  0
  2  6  1  1
  7  1  1  0
  8  9  1  0
  9  2  1  0
 10  8  1  0
M  END
>  <ID>  (2275) 


>  <MOLENAME>  (2275) 
L-DEOXYALLIIN

>  <therap>  (2275) 
antineoplastic

>  <ref>  (2275) 
J Cancer Res 50:5084 (1990)

>  <cas#>  (2275) 
21593-77-1

>  <source>  (2275) 
Allium spp

>  <status>  (2275) 
experimental

>  <tradename>  (2275) 
nan

>  <SMILES>  (2275) 
C=CCSC[C@@H](N)C(=O)O

>  <standardized_failed>  (2275) 
False

$$$$

     RDKit          2D

 13 13  0  0  0  0  0  0  0  0999 V2000
    4.5417   -2.3417    0.0000 C   0  0  0  0  0  0  0  0  0  0  0  0
    3.7167   -2.3417    0.0000 C   0  0  0  0  0  0  0  0  0  0  0  0
    1.2417   -0.9167    0.0000 C   0  0  0  0  0  0  0  0  0  0  0  0
    3.3042   -1.6250    0.0000 C   0  0  0  0  0  0  0  0  0  0  0  0
    0.8292   -1.6292    0.0000 C   0  0  0  0  0  0  0  0  0  0  0  0
    2.0667   -0.9125    0.0000 C   0  0  0  0  0  0  0  0  0  0  0  0
    4.9542   -1.6292    0.0000 O   0  0  0  0  0  0  0  0  0  0  0  0
    2.4792   -1.6250    0.0000 C   0  0  0  0  0  0  0  0  0  0  0  0
    1.2417   -2.3375    0.0000 C   0  0  0  0  0  0  0  0  0  0  0  0
    0.8250   -0.2000    0.0000 O   0  0  0  0  0  0  0  0  0  0  0  0
    4.9542   -3.0542    0.0000 O   0  0  0  0  0  0  0  0  0  0  0  0
    2.0667   -2.3375    0.0000 C   0  0  0  0  0  0  0  0  0  0  0  0
    0.0042   -1.6292    0.0000 O   0  0  0  0  0  0  0  0  0  0  0  0
  2  1  1  0
  3  6  2  0
  4  2  2  0
  5  9  2  0
  6  8  1  0
  7  1  2  0
  8  4  1  0
  9 12  1  0
 10  3  1  0
 11  1  1  0
 12  8  2  0
 13  5  1  0
  5  3  1  0
M  END
>  <ID>  (2276) 


>  <MOLENAME>  (2276) 
CAFFEIC ACID

>  <therap>  (2276) 
nan

>  <ref>  (2276) 
nan

>  <cas#>  (2276) 
331-39-5

>  <source>  (2276) 
widespread in plants

>  <status>  (2276) 
undetermined activity

>  <tradename>  (2276) 
nan

>  <SMILES>  (2276) 
O=C(O)/C=C/c1ccc(O)c(O)c1

>  <standardized_failed>  (2276) 
False

$$$$

     RDKit          2D

 23 23  0  0  0  0  0  0  0  0999 V2000
    3.3375   -3.6000    0.0000 C   0  0  0  0  0  0  0  0  0  0  0  0
    3.3375   -4.4250    0.0000 C   0  0  0  0  0  0  0  0  0  0  0  0
    2.6125   -4.8375    0.0000 C   0  0  0  0  0  0  0  0  0  0  0  0
    2.6125   -3.1792    0.0000 O   0  0  0  0  0  0  0  0  0  0  0  0
    4.7625   -2.7625    0.0000 C   0  0  0  0  0  0  0  0  0  0  0  0
    4.0500   -3.1792    0.0000 O   0  0  0  0  0  0  0  0  0  0  0  0
    1.8917   -4.4250    0.0000 C   0  0  0  0  0  0  0  0  0  0  0  0
    1.8917   -3.6000    0.0000 C   0  0  0  0  0  0  0  0  0  0  0  0
    5.4792   -3.1750    0.0000 C   0  0  0  0  0  0  0  0  0  0  0  0
    4.7625   -1.9375    0.0000 C   0  0  0  0  0  0  0  0  0  0  0  0
    6.1917   -2.7542    0.0000 C   0  0  0  0  0  0  0  0  0  0  0  0
    4.0500   -4.8375    0.0000 O   0  0  0  0  0  0  0  0  0  0  0  0
    2.6167   -5.6667    0.0000 O   0  0  0  0  0  0  0  0  0  0  0  0
    1.1792   -4.8375    0.0000 O   0  0  0  0  0  0  0  0  0  0  0  0
    5.4792   -4.0000    0.0000 O   0  0  0  0  0  0  0  0  0  0  0  0
    5.4667   -1.5167    0.0000 O   0  0  0  0  0  0  0  0  0  0  0  0
    6.9042   -3.1667    0.0000 O   0  0  0  0  0  0  0  0  0  0  0  0
    1.1792   -3.1792    0.0000 C   0  0  0  0  0  0  0  0  0  0  0  0
    0.5500   -3.7167    0.0000 O   0  0  0  0  0  0  0  0  0  0  0  0
    6.9042   -1.5167    0.0000 O   0  0  0  0  0  0  0  0  0  0  0  0
    3.4167   -2.0625    0.0000 O   0  0  0  0  0  0  0  0  0  0  0  0
    4.0417   -1.5292    0.0000 C   0  0  0  0  0  0  0  0  0  0  0  0
    6.1917   -1.9292    0.0000 C   0  0  0  0  0  0  0  0  0  0  0  0
  2  1  1  0
  3  2  1  0
  4  1  1  0
  5  6  1  6
  1  6  1  1
  7  8  1  0
  8  4  1  0
  9  5  1  0
 10  5  1  0
 11  9  1  0
  2 12  1  6
  3 13  1  1
  7 14  1  6
  9 15  1  1
 10 16  1  1
 11 17  1  6
  8 18  1  1
 19 18  1  0
 23 20  1  0
 21 22  1  0
 10 22  1  0
 23 11  1  0
  7  3  1  0
M  END
>  <ID>  (2277) 


>  <MOLENAME>  (2277) 
GLUCITOL-4-GUCOPYANOSIDE

>  <therap>  (2277) 
nan

>  <ref>  (2277) 
nan

>  <cas#>  (2277) 
nan

>  <source>  (2277) 
derivative cotton

>  <status>  (2277) 
undetermined activity

>  <tradename>  (2277) 
nan

>  <SMILES>  (2277) 
OC[C@H](O)[C@@H](O)[C@H](O[C@@H]1O[C@H](CO)[C@@H](O)[C@H](O)[C@H]1O)[C@H](O)CO

>  <standardized_failed>  (2277) 
False

$$$$

     RDKit          2D

 35 34  0  0  0  0  0  0  0  0999 V2000
    6.4792   -2.3917    0.0000 C   0  0  0  0  0  0  0  0  0  0  0  0
    5.7667   -1.9792    0.0000 C   0  0  0  0  0  0  0  0  0  0  0  0
    7.1917   -1.9750    0.0000 C   0  0  0  0  0  0  0  0  0  0  0  0
    5.0542   -2.3917    0.0000 C   0  0  0  0  0  0  0  0  0  0  0  0
    7.9042   -2.3917    0.0000 C   0  0  0  0  0  0  0  0  0  0  0  0
    6.4667   -3.2375    0.0000 O   0  0  0  0  0  0  0  0  0  0  0  0
    7.1917   -1.1500    0.0000 O   0  0  0  0  0  0  0  0  0  0  0  0
    5.7792   -2.6125    0.0000 O   0  0  0  0  0  0  0  0  0  0  0  0
    7.9042   -1.5625    0.0000 O   0  0  0  0  0  0  0  0  0  0  0  0
    5.0917   -1.5542    0.0000 O   0  0  0  0  0  0  0  0  0  0  0  0
    7.1667   -3.6667    0.0000 C   0  0  0  0  0  0  0  0  0  0  0  0
    5.6542   -3.2667    0.0000 C   0  0  0  0  0  0  0  0  0  0  0  0
    6.6042   -0.5625    0.0000 C   0  0  0  0  0  0  0  0  0  0  0  0
    8.6167   -1.1417    0.0000 C   0  0  0  0  0  0  0  0  0  0  0  0
    4.4042   -1.1042    0.0000 C   0  0  0  0  0  0  0  0  0  0  0  0
    2.9042   -1.9792    0.0000 C   0  0  0  0  0  0  0  0  0  0  0  0
    9.3417   -3.2167    0.0000 C   0  0  0  0  0  0  0  0  0  0  0  0
    8.6292   -1.9792    0.0000 C   0  0  0  0  0  0  0  0  0  0  0  0
    4.3417   -1.9792    0.0000 C   0  0  0  0  0  0  0  0  0  0  0  0
    3.6292   -2.3917    0.0000 O   0  0  0  0  0  0  0  0  0  0  0  0
    9.3417   -2.3917    0.0000 O   0  0  0  0  0  0  0  0  0  0  0  0
    7.8917   -3.2667    0.0000 O   0  0  0  0  0  0  0  0  0  0  0  0
    3.6667   -1.4792    0.0000 O   0  0  0  0  0  0  0  0  0  0  0  0
    6.1542   -3.7042    0.0000 O   0  0  0  0  0  0  0  0  0  0  0  0
    5.8042   -0.7750    0.0000 O   0  0  0  0  0  0  0  0  0  0  0  0
    8.6042   -0.3167    0.0000 O   0  0  0  0  0  0  0  0  0  0  0  0
    2.9042   -1.1542    0.0000 O   0  0  0  0  0  0  0  0  0  0  0  0
    8.6167   -3.6292    0.0000 O   0  0  0  0  0  0  0  0  0  0  0  0
    6.8167    0.2375    0.0000 C   0  0  0  0  0  0  0  0  0  0  0  0
    5.0167   -3.4917    0.0000 C   0  0  0  0  0  0  0  0  0  0  0  0
    9.3292   -1.5542    0.0000 C   0  0  0  0  0  0  0  0  0  0  0  0
    4.4417   -0.2792    0.0000 C   0  0  0  0  0  0  0  0  0  0  0  0
    7.1542   -4.4875    0.0000 C   0  0  0  0  0  0  0  0  0  0  0  0
    2.1917   -2.3917    0.0000 C   0  0  0  0  0  0  0  0  0  0  0  0
   10.0542   -3.6292    0.0000 C   0  0  0  0  0  0  0  0  0  0  0  0
  2  1  1  0
  3  1  1  0
  4  2  1  0
  5  3  1  0
  6  1  1  0
  7  3  1  0
  8  2  1  0
  9  5  1  0
 10  4  1  0
 11  6  1  0
 12  8  1  0
 13  7  1  0
 14  9  1  0
 15 10  1  0
 16 20  1  0
 17 21  1  0
 18  5  1  0
 19  4  1  0
 20 19  1  0
 21 18  1  0
 22 11  2  0
 23 15  2  0
 24 12  2  0
 25 13  2  0
 26 14  2  0
 27 16  2  0
 28 17  2  0
 29 13  1  0
 30 12  1  0
 31 14  1  0
 32 15  1  0
 33 11  1  0
 34 16  1  0
 35 17  1  0
M  END
>  <ID>  (2278) 


>  <MOLENAME>  (2278) 
PERSEITOL HEPTAACETATE

>  <therap>  (2278) 
nan

>  <ref>  (2278) 
nan

>  <cas#>  (2278) 
19147-10-5

>  <source>  (2278) 
derivative of perseitol

>  <status>  (2278) 
undetermined activity

>  <tradename>  (2278) 
nan

>  <SMILES>  (2278) 
CC(=O)OCC(OC(C)=O)C(OC(C)=O)C(OC(C)=O)C(OC(C)=O)C(COC(C)=O)OC(C)=O

>  <standardized_failed>  (2278) 
False

$$$$

     RDKit          2D

 23 26  0  0  0  0  0  0  0  0999 V2000
    2.5667   -2.4917    0.0000 C   0  0  0  0  0  0  0  0  0  0  0  0
    1.8542   -3.7292    0.0000 C   0  0  0  0  0  0  0  0  0  0  0  0
    1.1417   -3.3167    0.0000 C   0  0  0  0  0  0  0  0  0  0  0  0
    2.5625   -3.3167    0.0000 C   0  0  0  0  0  0  0  0  0  0  0  0
    3.2792   -2.0792    0.0000 C   0  0  0  0  0  0  0  0  0  0  0  0
    3.9875   -2.5042    0.0000 C   0  0  0  0  0  0  0  0  0  0  0  0
    4.7042   -2.1000    0.0000 C   0  0  0  0  0  0  0  0  0  0  0  0
    0.5375   -3.8750    0.0000 C   0  0  0  0  0  0  0  0  0  0  0  0
    4.7167   -1.2667    0.0000 C   0  0  0  0  0  0  0  0  0  0  0  0
    0.8750   -4.6250    0.0000 O   0  0  0  0  0  0  0  0  0  0  0  0
    1.6917   -4.5292    0.0000 C   0  0  0  0  0  0  0  0  0  0  0  0
    1.8542   -2.0792    0.0000 C   0  0  0  0  0  0  0  0  0  0  0  0
    1.1417   -2.4917    0.0000 C   0  0  0  0  0  0  0  0  0  0  0  0
    3.2792   -1.2625    0.0000 C   0  0  0  0  0  0  0  0  0  0  0  0
    3.9917   -3.3250    0.0000 C   0  0  0  0  0  0  0  0  0  0  0  0
    3.2750   -3.7292    0.0000 C   0  0  0  0  0  0  0  0  0  0  0  0
    4.0042   -0.8542    0.0000 C   0  0  0  0  0  0  0  0  0  0  0  0
   -0.2708   -3.7125    0.0000 O   0  0  0  0  0  0  0  0  0  0  0  0
    5.4375   -0.8750    0.0000 C   0  0  0  0  0  0  0  0  0  0  0  0
    5.4167   -2.5125    0.0000 O   0  0  0  0  0  0  0  0  0  0  0  0
    2.5500   -1.6792    0.0000 C   0  0  0  0  0  0  0  0  0  0  0  0
    5.4417   -0.0500    0.0000 C   0  0  0  0  0  0  0  0  0  0  0  0
    6.1417   -1.2917    0.0000 C   0  0  0  0  0  0  0  0  0  0  0  0
  2  4  1  0
  3 13  1  0
  4  1  1  0
  5  1  1  0
  6  5  1  0
  7  6  2  0
  8  3  1  0
  9 17  2  0
 10 11  1  0
 11  2  1  0
 12  1  1  0
 13 12  1  0
 14  5  2  0
 15  6  1  0
  4 16  1  1
 17 14  1  0
 18  8  2  0
 19  9  1  0
 20  7  1  0
  1 21  1  1
 22 19  1  0
 23 19  1  0
 15 16  1  0
  3  2  2  0
  9  7  1  0
 10  8  1  0
M  END
>  <ID>  (2279) 


>  <MOLENAME>  (2279) 
TRIPTOPHENOLIDE

>  <therap>  (2279) 
nan

>  <ref>  (2279) 
Chin Chem Lett 5:217 (1994)

>  <cas#>  (2279) 
74285-86-2

>  <source>  (2279) 
Tripterygium wilfordii

>  <status>  (2279) 
undetermined activity

>  <tradename>  (2279) 
nan

>  <SMILES>  (2279) 
CC(C)c1ccc2c(c1O)CC[C@H]1C3=C(CC[C@]21C)C(=O)OC3

>  <standardized_failed>  (2279) 
False

$$$$

     RDKit          2D

 38 41  0  0  0  0  0  0  0  0999 V2000
    3.6542   -4.3917    0.0000 C   0  0  0  0  0  0  0  0  0  0  0  0
    4.5500   -3.8792    0.0000 C   0  0  0  0  0  0  0  0  0  0  0  0
    2.2292   -4.4042    0.0000 C   0  0  0  0  0  0  0  0  0  0  0  0
    5.9750   -3.8750    0.0000 C   0  0  0  0  0  0  0  0  0  0  0  0
    6.6917   -4.2875    0.0000 C   0  0  0  0  0  0  0  0  0  0  0  0
    1.5167   -3.9917    0.0000 C   0  0  0  0  0  0  0  0  0  0  0  0
    2.2292   -5.2292    0.0000 C   0  0  0  0  0  0  0  0  0  0  0  0
    5.9750   -3.0500    0.0000 C   0  0  0  0  0  0  0  0  0  0  0  0
    2.9417   -3.9875    0.0000 C   0  0  0  0  0  0  0  0  0  0  0  0
    5.2667   -4.2917    0.0000 C   0  0  0  0  0  0  0  0  0  0  0  0
    0.8042   -5.2292    0.0000 C   0  0  0  0  0  0  0  0  0  0  0  0
    7.4042   -3.0417    0.0000 C   0  0  0  0  0  0  0  0  0  0  0  0
    7.4042   -3.8750    0.0000 C   0  0  0  0  0  0  0  0  0  0  0  0
    0.8042   -4.4042    0.0000 C   0  0  0  0  0  0  0  0  0  0  0  0
    1.5167   -5.6417    0.0000 C   0  0  0  0  0  0  0  0  0  0  0  0
    6.6917   -2.6292    0.0000 C   0  0  0  0  0  0  0  0  0  0  0  0
    4.5417   -3.0542    0.0000 C   0  0  0  0  0  0  0  0  0  0  0  0
    3.6625   -5.2250    0.0000 C   0  0  0  0  0  0  0  0  0  0  0  0
    2.9500   -5.6417    0.0000 C   0  0  0  0  0  0  0  0  0  0  0  0
    5.2542   -2.6375    0.0000 C   0  0  0  0  0  0  0  0  0  0  0  0
    1.5125   -3.1667    0.0000 C   0  0  0  0  0  0  0  0  0  0  0  0
    6.6917   -5.1125    0.0000 C   0  0  0  0  0  0  0  0  0  0  0  0
    5.2667   -5.1167    0.0000 O   0  0  0  0  0  0  0  0  0  0  0  0
    2.9375   -3.1625    0.0000 O   0  0  0  0  0  0  0  0  0  0  0  0
    0.0875   -5.6417    0.0000 O   0  0  0  0  0  0  0  0  0  0  0  0
    8.1167   -2.6292    0.0000 O   0  0  0  0  0  0  0  0  0  0  0  0
    1.5167   -6.4667    0.0000 C   0  0  0  0  0  0  0  0  0  0  0  0
    6.6875   -1.8042    0.0000 C   0  0  0  0  0  0  0  0  0  0  0  0
    0.8000   -2.7542    0.0000 O   0  0  0  0  0  0  0  0  0  0  0  0
    7.4042   -5.5167    0.0000 O   0  0  0  0  0  0  0  0  0  0  0  0
    8.1167   -4.2792    0.0000 O   0  0  0  0  0  0  0  0  0  0  0  0
    0.0917   -3.9917    0.0000 O   0  0  0  0  0  0  0  0  0  0  0  0
    3.8292   -2.6417    0.0000 C   0  0  0  0  0  0  0  0  0  0  0  0
    4.3792   -5.6292    0.0000 C   0  0  0  0  0  0  0  0  0  0  0  0
    2.2375   -6.8792    0.0000 C   0  0  0  0  0  0  0  0  0  0  0  0
    7.4000   -1.3917    0.0000 C   0  0  0  0  0  0  0  0  0  0  0  0
    5.9667   -1.3917    0.0000 C   0  0  0  0  0  0  0  0  0  0  0  0
    0.8042   -6.8875    0.0000 C   0  0  0  0  0  0  0  0  0  0  0  0
  2  1  1  0
  3  9  1  0
  4 10  1  0
  5  4  2  0
  6  3  2  0
  7 19  1  0
  8 20  1  0
  9  1  2  0
 10  2  2  0
 11 15  1  0
 12 16  1  0
 13  5  1  0
 14  6  1  0
 15  7  2  0
 16  8  2  0
 17  2  1  0
 18  1  1  0
 19 18  2  0
 20 17  2  0
 21  6  1  0
 22  5  1  0
 23 10  1  0
 24  9  1  0
 25 11  1  0
 26 12  1  0
 27 15  1  0
 28 16  1  0
 29 21  2  0
 30 22  2  0
 31 13  1  0
 32 14  1  0
 33 17  1  0
 34 18  1  0
 35 27  1  0
 36 28  1  0
 37 28  1  0
 38 27  1  0
  3  7  1  0
 14 11  2  0
  4  8  1  0
 13 12  2  0
M  END
>  <ID>  (2280) 


>  <MOLENAME>  (2280) 
GOSSYPOL

>  <therap>  (2280) 
antispermatogenic, antineoplastic, antiHIV

>  <ref>  (2280) 
J Am Chem Soc 60: 2193 (1938)

>  <cas#>  (2280) 
303-45-7

>  <source>  (2280) 
Gossypium spp

>  <status>  (2280) 
experimental

>  <tradename>  (2280) 
nan

>  <SMILES>  (2280) 
Cc1cc2c(C(C)C)c(O)c(O)c(C=O)c2c(O)c1-c1c(O)c2c(C=O)c(O)c(O)c(C(C)C)c2cc1C

>  <standardized_failed>  (2280) 
False

$$$$

     RDKit          2D

 14 15  0  0  0  0  0  0  0  0999 V2000
    1.4125   -2.9375    0.0000 C   0  0  0  0  0  0  0  0  0  0  0  0
    0.7000   -3.3542    0.0000 C   0  0  0  0  0  0  0  0  0  0  0  0
    1.4167   -2.1125    0.0000 C   0  0  0  0  0  0  0  0  0  0  0  0
   -0.0125   -2.9417    0.0000 C   0  0  0  0  0  0  0  0  0  0  0  0
    0.7000   -1.7000    0.0000 C   0  0  0  0  0  0  0  0  0  0  0  0
   -0.0125   -2.1125    0.0000 C   0  0  0  0  0  0  0  0  0  0  0  0
    2.8417   -2.9417    0.0000 N   0  0  0  0  0  0  0  0  0  0  0  0
    2.1292   -3.3542    0.0000 C   0  0  0  0  0  0  0  0  0  0  0  0
   -0.7250   -1.7042    0.0000 O   0  0  0  0  0  0  0  0  0  0  0  0
    2.8417   -2.1125    0.0000 C   0  0  0  0  0  0  0  0  0  0  0  0
   -0.7333   -3.3542    0.0000 O   0  0  0  0  0  0  0  0  0  0  0  0
    2.1292   -1.6917    0.0000 C   0  0  0  0  0  0  0  0  0  0  0  0
    2.1250   -4.1792    0.0000 C   0  0  0  0  0  0  0  0  0  0  0  0
   -1.4458   -2.9417    0.0000 C   0  0  0  0  0  0  0  0  0  0  0  0
  2  1  2  0
  3  1  1  0
  4  2  1  0
  5  3  2  0
  6  5  1  0
  7  8  1  0
  8  1  1  0
  9  6  1  0
 10  7  1  0
 11  4  1  0
 12  3  1  0
 13  8  1  0
 14 11  1  0
 12 10  1  0
  4  6  2  0
M  END
>  <ID>  (2281) 


>  <MOLENAME>  (2281) 
SALSOLINE

>  <therap>  (2281) 
antihypertensive, antihistamine

>  <ref>  (2281) 
Phytochemistry 12:193 (1973); J Med Chem 33:147 (1990)

>  <cas#>  (2281) 
89-31-6

>  <source>  (2281) 
Salsola richteri

>  <status>  (2281) 
experimental

>  <tradename>  (2281) 
nan

>  <SMILES>  (2281) 
COc1c(O)cc2CCNC(C)c2c1

>  <standardized_failed>  (2281) 
False

$$$$

     RDKit          2D

 21 23  0  0  0  0  0  0  0  0999 V2000
    3.3375   -0.7792    0.0000 C   0  0  0  0  0  0  0  0  0  0  0  0
    4.0500   -1.1917    0.0000 C   0  0  0  0  0  0  0  0  0  0  0  0
    2.6292   -1.1917    0.0000 C   0  0  0  0  0  0  0  0  0  0  0  0
    2.6250   -2.0167    0.0000 C   0  0  0  0  0  0  0  0  0  0  0  0
    4.0500   -2.0167    0.0000 C   0  0  0  0  0  0  0  0  0  0  0  0
    3.3292   -2.4292    0.0000 C   0  0  0  0  0  0  0  0  0  0  0  0
    4.7625   -0.7792    0.0000 C   0  0  0  0  0  0  0  0  0  0  0  0
    1.9167   -0.7792    0.0000 C   0  0  0  0  0  0  0  0  0  0  0  0
    5.4750   -1.1917    0.0000 C   0  0  0  0  0  0  0  0  0  0  0  0
    4.7625   -2.4292    0.0000 C   0  0  0  0  0  0  0  0  0  0  0  0
    1.9125   -2.4292    0.0000 C   0  0  0  0  0  0  0  0  0  0  0  0
    3.3417    0.0458    0.0000 O   0  0  0  0  0  0  0  0  0  0  0  0
    1.2042   -1.1875    0.0000 C   0  0  0  0  0  0  0  0  0  0  0  0
    3.3292   -3.2542    0.0000 O   0  0  0  0  0  0  0  0  0  0  0  0
    5.4792   -2.0167    0.0000 C   0  0  0  0  0  0  0  0  0  0  0  0
    1.2042   -2.0125    0.0000 C   0  0  0  0  0  0  0  0  0  0  0  0
    4.7542    0.0458    0.0000 O   0  0  0  0  0  0  0  0  0  0  0  0
    1.9167    0.0458    0.0000 O   0  0  0  0  0  0  0  0  0  0  0  0
    6.1917   -2.4292    0.0000 O   0  0  0  0  0  0  0  0  0  0  0  0
    0.4875   -2.4167    0.0000 C   0  0  0  0  0  0  0  0  0  0  0  0
    6.1917   -3.2542    0.0000 C   0  0  0  0  0  0  0  0  0  0  0  0
  2  1  1  0
  3  1  1  0
  4  3  2  0
  5  2  2  0
  6  4  1  0
  7  2  1  0
  8  3  1  0
  9  7  2  0
 10  5  1  0
 11  4  1  0
 12  1  2  0
 13  8  2  0
 14  6  2  0
 15  9  1  0
 16 13  1  0
 17  7  1  0
 18  8  1  0
 19 15  1  0
 20 16  1  0
 21 19  1  0
  6  5  1  0
 16 11  2  0
 10 15  2  0
M  END
>  <ID>  (2282) 


>  <MOLENAME>  (2282) 
PHYSCION

>  <therap>  (2282) 
antibacterial, cathartic

>  <ref>  (2282) 
Helv Chim Acta 8: 140 (1925); Pharmacology 14: 1 (1976)

>  <cas#>  (2282) 
521-61-9

>  <source>  (2282) 
Xanthoria lichens, Rumex spp and various Aspergillus spp.

>  <status>  (2282) 
experimental

>  <tradename>  (2282) 
nan

>  <SMILES>  (2282) 
COc1cc2c(C(=O)c3c(cc(C)cc3O)C2=O)c(O)c1

>  <standardized_failed>  (2282) 
False

$$$$

     RDKit          2D

 26 28  0  0  0  0  0  0  0  0999 V2000
    6.1417   -2.5542    0.0000 C   0  0  0  0  0  0  0  0  0  0  0  0
    6.1375   -1.7167    0.0000 C   0  0  0  0  0  0  0  0  0  0  0  0
    5.4250   -2.9667    0.0000 C   0  0  0  0  0  0  0  0  0  0  0  0
    4.7125   -2.5542    0.0000 C   0  0  0  0  0  0  0  0  0  0  0  0
    5.4250   -1.3167    0.0000 O   0  0  0  0  0  0  0  0  0  0  0  0
    4.7125   -1.7292    0.0000 C   0  0  0  0  0  0  0  0  0  0  0  0
    4.0000   -2.9667    0.0000 C   0  0  0  0  0  0  0  0  0  0  0  0
    6.8500   -1.3042    0.0000 C   0  0  0  0  0  0  0  0  0  0  0  0
    4.0000   -1.3167    0.0000 C   0  0  0  0  0  0  0  0  0  0  0  0
    3.2875   -2.5542    0.0000 C   0  0  0  0  0  0  0  0  0  0  0  0
    7.5625   -1.7167    0.0000 C   0  0  0  0  0  0  0  0  0  0  0  0
    8.2750   -1.3042    0.0000 C   0  0  0  0  0  0  0  0  0  0  0  0
    5.4250   -3.7917    0.0000 O   0  0  0  0  0  0  0  0  0  0  0  0
    3.2875   -1.7292    0.0000 C   0  0  0  0  0  0  0  0  0  0  0  0
    8.2750   -0.4792    0.0000 C   0  0  0  0  0  0  0  0  0  0  0  0
    6.8417   -0.4792    0.0000 C   0  0  0  0  0  0  0  0  0  0  0  0
    6.8625   -2.9542    0.0000 O   0  0  0  0  0  0  0  0  0  0  0  0
    7.5500   -0.0667    0.0000 C   0  0  0  0  0  0  0  0  0  0  0  0
    4.0000   -3.7917    0.0000 O   0  0  0  0  0  0  0  0  0  0  0  0
    8.9917   -1.7042    0.0000 O   0  0  0  0  0  0  0  0  0  0  0  0
    8.9875   -0.0542    0.0000 O   0  0  0  0  0  0  0  0  0  0  0  0
    2.5750   -1.3167    0.0000 O   0  0  0  0  0  0  0  0  0  0  0  0
    6.8625   -3.7792    0.0000 C   0  0  0  0  0  0  0  0  0  0  0  0
    9.0000   -2.5292    0.0000 C   0  0  0  0  0  0  0  0  0  0  0  0
    9.7000   -0.4667    0.0000 C   0  0  0  0  0  0  0  0  0  0  0  0
    2.5750   -0.4917    0.0000 C   0  0  0  0  0  0  0  0  0  0  0  0
  2  1  2  0
  3  1  1  0
  4  3  1  0
  5  2  1  0
  6  4  2  0
  7  4  1  0
  8  2  1  0
  9  6  1  0
 10  7  2  0
 11  8  2  0
 12 11  1  0
 13  3  2  0
 14 10  1  0
 15 18  1  0
 16  8  1  0
 17  1  1  0
 18 16  2  0
 19  7  1  0
 20 12  1  0
 21 15  1  0
 22 14  1  0
 23 17  1  0
 24 20  1  0
 25 21  1  0
 26 22  1  0
  5  6  1  0
 14  9  2  0
 12 15  2  0
M  END
>  <ID>  (2283) 


>  <MOLENAME>  (2283) 
RETUSIN

>  <therap>  (2283) 
nan

>  <ref>  (2283) 
nan

>  <cas#>  (2283) 
1245-15-4

>  <source>  (2283) 
Aciocarpus retusus, Cistus & Parthenium spp

>  <status>  (2283) 
undetermined activity

>  <tradename>  (2283) 
nan

>  <SMILES>  (2283) 
COc1cc2c(c(O)c1)c(=O)c(OC)c(-c1cc(OC)c(OC)cc1)o2

>  <standardized_failed>  (2283) 
False

$$$$

     RDKit          2D

 41 45  0  0  0  0  0  0  0  0999 V2000
    0.1500   -2.7750    0.0000 C   0  0  0  0  0  0  0  0  0  0  0  0
    0.9417   -4.2125    0.0000 C   0  0  0  0  0  0  0  0  0  0  0  0
    0.5750   -2.0667    0.0000 C   0  0  0  0  0  0  0  0  0  0  0  0
    3.5417   -0.8417    0.0000 C   0  0  0  0  0  0  0  0  0  0  0  0
    4.2500   -0.4250    0.0000 C   0  0  0  0  0  0  0  0  0  0  0  0
    1.7667   -4.2292    0.0000 C   0  0  0  0  0  0  0  0  0  0  0  0
   -0.6833   -2.7542    0.0000 C   0  0  0  0  0  0  0  0  0  0  0  0
    4.9667   -1.6625    0.0000 C   0  0  0  0  0  0  0  0  0  0  0  0
    4.9667   -0.8292    0.0000 C   0  0  0  0  0  0  0  0  0  0  0  0
    3.5417   -1.6667    0.0000 C   0  0  0  0  0  0  0  0  0  0  0  0
    2.1750   -4.9542    0.0000 C   0  0  0  0  0  0  0  0  0  0  0  0
    0.5500   -3.4917    0.0000 O   0  0  0  0  0  0  0  0  0  0  0  0
    4.2542   -2.0792    0.0000 O   0  0  0  0  0  0  0  0  0  0  0  0
    0.1667   -1.3417    0.0000 O   0  0  0  0  0  0  0  0  0  0  0  0
    0.5167   -4.9250    0.0000 O   0  0  0  0  0  0  0  0  0  0  0  0
   -1.0833   -2.0375    0.0000 C   0  0  0  0  0  0  0  0  0  0  0  0
    2.8250   -0.4292    0.0000 C   0  0  0  0  0  0  0  0  0  0  0  0
    1.7417   -5.6542    0.0000 C   0  0  0  0  0  0  0  0  0  0  0  0
   -0.6583   -1.3292    0.0000 C   0  0  0  0  0  0  0  0  0  0  0  0
    0.9167   -5.6417    0.0000 C   0  0  0  0  0  0  0  0  0  0  0  0
    2.1125   -1.6667    0.0000 C   0  0  0  0  0  0  0  0  0  0  0  0
    2.8250   -2.0792    0.0000 C   0  0  0  0  0  0  0  0  0  0  0  0
    1.3917   -2.0750    0.0000 O   0  0  0  0  0  0  0  0  0  0  0  0
    2.1125   -0.8417    0.0000 C   0  0  0  0  0  0  0  0  0  0  0  0
    5.6792   -2.0667    0.0000 C   0  0  0  0  0  0  0  0  0  0  0  0
    4.2417    0.4000    0.0000 O   0  0  0  0  0  0  0  0  0  0  0  0
    2.1917   -3.5250    0.0000 O   0  0  0  0  0  0  0  0  0  0  0  0
   -1.1000   -3.4667    0.0000 O   0  0  0  0  0  0  0  0  0  0  0  0
    6.3917   -1.6542    0.0000 C   0  0  0  0  0  0  0  0  0  0  0  0
    5.6875   -2.8917    0.0000 C   0  0  0  0  0  0  0  0  0  0  0  0
    3.0000   -4.9667    0.0000 O   0  0  0  0  0  0  0  0  0  0  0  0
   -1.9083   -2.0250    0.0000 O   0  0  0  0  0  0  0  0  0  0  0  0
    2.8167    0.3958    0.0000 O   0  0  0  0  0  0  0  0  0  0  0  0
    2.1500   -6.3792    0.0000 O   0  0  0  0  0  0  0  0  0  0  0  0
    7.1167   -2.8875    0.0000 C   0  0  0  0  0  0  0  0  0  0  0  0
    7.1042   -2.0542    0.0000 C   0  0  0  0  0  0  0  0  0  0  0  0
    6.4000   -3.3042    0.0000 C   0  0  0  0  0  0  0  0  0  0  0  0
   -1.0583   -0.6042    0.0000 C   0  0  0  0  0  0  0  0  0  0  0  0
    7.8292   -3.3000    0.0000 O   0  0  0  0  0  0  0  0  0  0  0  0
   -1.8708   -0.7417    0.0000 O   0  0  0  0  0  0  0  0  0  0  0  0
    0.4917   -6.3500    0.0000 C   0  0  0  0  0  0  0  0  0  0  0  0
  2 12  1  1
  3  1  1  0
  4 17  2  0
  5  4  1  0
  6  2  1  0
  7  1  1  0
  8 13  1  0
  9  5  1  0
 10 22  2  0
 11  6  1  0
  1 12  1  6
 13 10  1  0
 14  3  1  0
 15  2  1  0
 16  7  1  0
 17 24  1  0
 18 20  1  0
 19 16  1  0
 20 15  1  0
 21 23  1  0
 22 21  1  0
  3 23  1  1
 24 21  2  0
 25  8  1  0
 26  5  2  0
  6 27  1  6
  7 28  1  1
 29 25  2  0
 30 25  1  0
 11 31  1  6
 16 32  1  6
 33 17  1  0
 18 34  1  1
 35 37  1  0
 36 29  1  0
 37 30  2  0
 19 38  1  1
 39 35  1  0
 40 38  1  0
 20 41  1  6
 19 14  1  0
 11 18  1  0
 10  4  1  0
  8  9  2  0
 36 35  2  0
M  END
>  <ID>  (2284) 


>  <MOLENAME>  (2284) 
RHOIFOLIN

>  <therap>  (2284) 
nan

>  <ref>  (2284) 
Experientia 20: 562 (1964); Chem Ber 102: 2083 (1969)

>  <cas#>  (2284) 
17306-46-6

>  <source>  (2284) 
Chorisia, Citrus and Rhus spp

>  <status>  (2284) 
undetermined activity

>  <tradename>  (2284) 
nan

>  <SMILES>  (2284) 
C[C@@H]1O[C@@H](O[C@H]2[C@H](Oc3cc(O)c4c(=O)cc(-c5ccc(O)cc5)oc4c3)O[C@H](CO)[C@@H](O)[C@@H]2O)[C@H](O)[C@H](O)[C@H]1O

>  <standardized_failed>  (2284) 
False

$$$$

     RDKit          2D

 31 34  0  0  0  0  0  0  0  0999 V2000
    2.1500    0.6708    0.0000 C   0  0  0  0  0  0  0  0  0  0  0  0
    0.7042    0.6625    0.0000 C   0  0  0  0  0  0  0  0  0  0  0  0
    0.7125    1.4958    0.0000 C   0  0  0  0  0  0  0  0  0  0  0  0
    1.4250    0.2458    0.0000 C   0  0  0  0  0  0  0  0  0  0  0  0
    2.1500    1.4958    0.0000 C   0  0  0  0  0  0  0  0  0  0  0  0
    1.4292    1.9208    0.0000 C   0  0  0  0  0  0  0  0  0  0  0  0
    3.5792    1.4958    0.0000 C   0  0  0  0  0  0  0  0  0  0  0  0
    3.5792    0.6625    0.0000 C   0  0  0  0  0  0  0  0  0  0  0  0
    4.3000    1.9208    0.0000 C   0  0  0  0  0  0  0  0  0  0  0  0
    2.8667    0.2583    0.0000 C   0  0  0  0  0  0  0  0  0  0  0  0
    5.0167    1.4958    0.0000 C   0  0  0  0  0  0  0  0  0  0  0  0
    2.8625    1.9083    0.0000 C   0  0  0  0  0  0  0  0  0  0  0  0
    4.3000    0.2458    0.0000 C   0  0  0  0  0  0  0  0  0  0  0  0
    5.0250    0.6708    0.0000 C   0  0  0  0  0  0  0  0  0  0  0  0
    4.2917    2.7458    0.0000 C   0  0  0  0  0  0  0  0  0  0  0  0
   -0.0083    0.2583    0.0000 C   0  0  0  0  0  0  0  0  0  0  0  0
   -0.0083    1.9083    0.0000 C   0  0  0  0  0  0  0  0  0  0  0  0
    1.4250   -0.5792    0.0000 O   0  0  0  0  0  0  0  0  0  0  0  0
    1.4292    2.7458    0.0000 O   0  0  0  0  0  0  0  0  0  0  0  0
    3.5792    3.1583    0.0000 O   0  0  0  0  0  0  0  0  0  0  0  0
   -0.7208    1.4958    0.0000 C   0  0  0  0  0  0  0  0  0  0  0  0
   -0.7208    0.6708    0.0000 C   0  0  0  0  0  0  0  0  0  0  0  0
    5.7292    1.0833    0.0000 O   0  0  0  0  0  0  0  0  0  0  0  0
    2.8667   -0.5667    0.0000 O   0  0  0  0  0  0  0  0  0  0  0  0
    4.3000   -0.5792    0.0000 O   0  0  0  0  0  0  0  0  0  0  0  0
    5.0125    3.1583    0.0000 O   0  0  0  0  0  0  0  0  0  0  0  0
    5.7292    1.9208    0.0000 C   0  0  0  0  0  0  0  0  0  0  0  0
   -0.0083   -0.5667    0.0000 O   0  0  0  0  0  0  0  0  0  0  0  0
   -0.0083    2.7333    0.0000 O   0  0  0  0  0  0  0  0  0  0  0  0
    5.7167    2.7458    0.0000 C   0  0  0  0  0  0  0  0  0  0  0  0
    6.4500    1.5083    0.0000 C   0  0  0  0  0  0  0  0  0  0  0  0
  2  4  1  0
  3  6  1  0
  4  1  1  0
  5  1  2  0
  6  5  1  0
  7  8  1  0
  8 10  2  0
  9  7  1  0
 10  1  1  0
 11 14  1  0
 12  5  1  0
 13  8  1  0
 14 13  1  0
  9 15  1  1
 16  2  2  0
 17  3  2  0
 18  4  2  0
 19  6  2  0
 20 15  2  0
 21 17  1  0
 22 16  1  0
 11 23  1  6
 24 10  1  0
 13 25  1  6
 26 15  1  0
 11 27  1  0
 28 16  1  0
 29 17  1  0
 30 26  1  0
 31 27  1  0
 12  7  2  0
  2  3  1  0
 22 21  2  0
 11  9  1  0
M  END
>  <ID>  (2285) 


>  <MOLENAME>  (2285) 
RUTILANTINONE

>  <therap>  (2285) 
coccidiostat

>  <ref>  (2285) 
Chem Ber 92: 1880 (1959); 100: 2561 (1967)

>  <cas#>  (2285) 
21288-61-9

>  <source>  (2285) 
Streptomyces species

>  <status>  (2285) 
experimental

>  <tradename>  (2285) 
nan

>  <SMILES>  (2285) 
CC[C@@]1(O)C[C@H](O)c2c(O)c3c(cc2[C@H]1C(=O)OC)C(=O)c1c(O)ccc(O)c1C3=O

>  <standardized_failed>  (2285) 
False

$$$$

     RDKit          2D

 69 77  0  0  0  0  0  0  0  0999 V2000
    7.3167   -3.2542    0.0000 C   0  0  0  0  0  0  0  0  0  0  0  0
   -2.5583   -8.5417    0.0000 C   0  0  0  0  0  0  0  0  0  0  0  0
    6.0292   -3.6542    0.0000 C   0  0  0  0  0  0  0  0  0  0  0  0
   -1.8583  -10.6042    0.0000 C   0  0  0  0  0  0  0  0  0  0  0  0
    6.0417   -2.8167    0.0000 C   0  0  0  0  0  0  0  0  0  0  0  0
   -1.8333   -7.3167    0.0000 C   0  0  0  0  0  0  0  0  0  0  0  0
   -0.3125  -10.1917    0.0000 C   0  0  0  0  0  0  0  0  0  0  0  0
    6.8167   -3.9167    0.0000 O   0  0  0  0  0  0  0  0  0  0  0  0
   -1.8333   -8.1375    0.0000 C   0  0  0  0  0  0  0  0  0  0  0  0
   -0.4000   -6.5000    0.0000 C   0  0  0  0  0  0  0  0  0  0  0  0
    1.0375   -5.6875    0.0000 C   0  0  0  0  0  0  0  0  0  0  0  0
    0.1000   -9.4792    0.0000 C   0  0  0  0  0  0  0  0  0  0  0  0
    1.0292   -6.5125    0.0000 C   0  0  0  0  0  0  0  0  0  0  0  0
    3.8917   -4.0500    0.0000 C   0  0  0  0  0  0  0  0  0  0  0  0
    0.3125   -6.9167    0.0000 C   0  0  0  0  0  0  0  0  0  0  0  0
   -2.5625  -10.1917    0.0000 C   0  0  0  0  0  0  0  0  0  0  0  0
    0.9292   -9.4792    0.0000 C   0  0  0  0  0  0  0  0  0  0  0  0
    5.3125   -4.0542    0.0000 C   0  0  0  0  0  0  0  0  0  0  0  0
   -1.1375  -10.1917    0.0000 O   0  0  0  0  0  0  0  0  0  0  0  0
    4.6042   -3.6375    0.0000 C   0  0  0  0  0  0  0  0  0  0  0  0
   -2.5458   -6.8917    0.0000 O   0  0  0  0  0  0  0  0  0  0  0  0
    0.1000  -10.9125    0.0000 O   0  0  0  0  0  0  0  0  0  0  0  0
    0.3167   -5.2667    0.0000 O   0  0  0  0  0  0  0  0  0  0  0  0
   -2.5583   -9.3667    0.0000 O   0  0  0  0  0  0  0  0  0  0  0  0
   -1.1125   -6.9042    0.0000 O   0  0  0  0  0  0  0  0  0  0  0  0
   -3.2625   -8.1292    0.0000 C   0  0  0  0  0  0  0  0  0  0  0  0
    1.3375  -10.1917    0.0000 C   0  0  0  0  0  0  0  0  0  0  0  0
   -1.8583  -11.4292    0.0000 C   0  0  0  0  0  0  0  0  0  0  0  0
    6.8375   -2.5792    0.0000 C   0  0  0  0  0  0  0  0  0  0  0  0
   -0.3958   -5.6750    0.0000 C   0  0  0  0  0  0  0  0  0  0  0  0
   -3.2583   -7.3042    0.0000 C   0  0  0  0  0  0  0  0  0  0  0  0
    0.9250  -10.9125    0.0000 C   0  0  0  0  0  0  0  0  0  0  0  0
    7.7250   -3.9667    0.0000 N   0  0  0  0  0  0  0  0  0  0  0  0
    3.8875   -4.8750    0.0000 C   0  0  0  0  0  0  0  0  0  0  0  0
   -3.2750  -10.6000    0.0000 O   0  0  0  0  0  0  0  0  0  0  0  0
    5.3292   -2.4042    0.0000 C   0  0  0  0  0  0  0  0  0  0  0  0
    4.6125   -2.8125    0.0000 C   0  0  0  0  0  0  0  0  0  0  0  0
    1.7542   -5.2792    0.0000 O   0  0  0  0  0  0  0  0  0  0  0  0
    3.1792   -3.6292    0.0000 C   0  0  0  0  0  0  0  0  0  0  0  0
   -2.5708  -11.8375    0.0000 C   0  0  0  0  0  0  0  0  0  0  0  0
    5.3167   -4.8792    0.0000 C   0  0  0  0  0  0  0  0  0  0  0  0
    7.7250   -2.5417    0.0000 C   0  0  0  0  0  0  0  0  0  0  0  0
   -3.2833  -11.4167    0.0000 C   0  0  0  0  0  0  0  0  0  0  0  0
    3.1792   -5.2792    0.0000 C   0  0  0  0  0  0  0  0  0  0  0  0
    4.6000   -5.2875    0.0000 C   0  0  0  0  0  0  0  0  0  0  0  0
    2.4667   -4.8750    0.0000 C   0  0  0  0  0  0  0  0  0  0  0  0
   -1.1250   -8.5542    0.0000 O   0  0  0  0  0  0  0  0  0  0  0  0
   -0.3083   -8.7625    0.0000 O   0  0  0  0  0  0  0  0  0  0  0  0
    1.7417   -6.9292    0.0000 O   0  0  0  0  0  0  0  0  0  0  0  0
    0.3042   -7.7417    0.0000 O   0  0  0  0  0  0  0  0  0  0  0  0
    1.3417   -8.7667    0.0000 O   0  0  0  0  0  0  0  0  0  0  0  0
    8.5417   -3.9667    0.0000 C   0  0  0  0  0  0  0  0  0  0  0  0
   -3.9750   -8.5375    0.0000 O   0  0  0  0  0  0  0  0  0  0  0  0
    2.1625  -10.2000    0.0000 O   0  0  0  0  0  0  0  0  0  0  0  0
   -1.1458  -11.8417    0.0000 O   0  0  0  0  0  0  0  0  0  0  0  0
    2.4667   -4.0500    0.0000 C   0  0  0  0  0  0  0  0  0  0  0  0
    6.0417   -1.9917    0.0000 C   0  0  0  0  0  0  0  0  0  0  0  0
    3.8875   -3.2250    0.0000 C   0  0  0  0  0  0  0  0  0  0  0  0
   -2.5750  -12.6542    0.0000 O   0  0  0  0  0  0  0  0  0  0  0  0
    8.5417   -2.5417    0.0000 C   0  0  0  0  0  0  0  0  0  0  0  0
   -1.1083   -5.2542    0.0000 C   0  0  0  0  0  0  0  0  0  0  0  0
    1.3292  -11.6292    0.0000 C   0  0  0  0  0  0  0  0  0  0  0  0
   -3.9708   -6.8875    0.0000 C   0  0  0  0  0  0  0  0  0  0  0  0
    8.9542   -3.2542    0.0000 C   0  0  0  0  0  0  0  0  0  0  0  0
    7.0500   -1.7792    0.0000 C   0  0  0  0  0  0  0  0  0  0  0  0
   -1.7375   -5.7875    0.0000 O   0  0  0  0  0  0  0  0  0  0  0  0
    2.1417  -11.4792    0.0000 O   0  0  0  0  0  0  0  0  0  0  0  0
   -4.5958   -7.4167    0.0000 O   0  0  0  0  0  0  0  0  0  0  0  0
    9.7792   -3.2625    0.0000 C   0  0  0  0  0  0  0  0  0  0  0  0
  2  9  1  0
  3  8  1  0
  4 16  1  0
  5 29  1  0
  6 25  1  6
  7 19  1  6
  8  1  1  0
  9  6  1  0
 10 30  1  0
 11 38  1  6
 12  7  1  0
 13 11  1  0
 14 20  1  0
 15 13  1  0
 16 24  1  6
 17 12  1  0
 18  3  1  0
  4 19  1  6
 20 18  1  0
 21  6  1  0
 22  7  1  0
 23 11  1  0
  2 24  1  1
 10 25  1  1
 26 31  1  0
 27 32  1  0
 28  4  1  0
 29  1  1  0
 30 23  1  0
 31 21  1  0
 32 22  1  0
  1 33  1  0
 34 45  1  0
 35 16  1  0
 36  5  1  0
 37 36  1  0
 46 38  1  1
 39 14  1  0
 40 43  1  0
 41 18  1  0
  1 42  1  6
 43 35  1  0
 44 34  1  0
 45 41  1  0
 46 44  1  0
  9 47  1  6
 12 48  1  6
 13 49  1  6
 15 50  1  1
 17 51  1  1
 52 33  1  0
 26 53  1  6
 27 54  1  6
 28 55  1  1
 56 39  1  0
  5 57  1  1
 14 58  1  1
 40 59  1  6
 60 42  1  0
 30 61  1  1
 32 62  1  1
 31 63  1  1
 64 60  1  0
 29 65  1  6
 66 61  1  0
 67 62  1  0
 68 63  1  0
 64 69  1  6
  5  3  1  0
 52 64  1  0
 20 37  1  0
 14 34  1  0
 56 46  1  0
 15 10  1  0
  2 26  1  0
 40 28  1  0
 17 27  1  0
M  END
>  <ID>  (2286) 


>  <MOLENAME>  (2286) 
TOMATINE

>  <therap>  (2286) 
antifungal, antibacterial, antiinflammatory agent

>  <ref>  (2286) 
Chem Ber 90: 203 (1957)

>  <cas#>  (2286) 
86273-92-9

>  <source>  (2286) 
Solanum spp.

>  <status>  (2286) 
experimental

>  <tradename>  (2286) 
nan

>  <SMILES>  (2286) 
C[C@H]1CC[C@]2(NC1)OC1C3CCC4C[C@@H](O[C@H]5O[C@H](CO)[C@H](O[C@H]6O[C@H](CO)[C@@H](O)[C@H](O[C@H]7OC[C@@H](O)[C@H](O)[C@H]7O[C@H]7O[C@H](CO)[C@@H](O)[C@H](O)[C@H]7O)[C@H]6O)[C@H](O)[C@H]5O)CC[C@]4(C)C3CC[C@]1(C)[C@@H]2C

>  <standardized_failed>  (2286) 
False

$$$$

     RDKit          2D

 13 13  0  0  0  0  0  0  0  0999 V2000
   -0.9500    1.0125    0.0000 C   0  0  0  0  0  0  0  0  0  0  0  0
   -0.9500    1.8458    0.0000 C   0  0  0  0  0  0  0  0  0  0  0  0
   -1.6625    2.2583    0.0000 C   0  0  0  0  0  0  0  0  0  0  0  0
   -1.6625    0.6000    0.0000 C   0  0  0  0  0  0  0  0  0  0  0  0
   -0.2333    0.6000    0.0000 C   0  0  0  0  0  0  0  0  0  0  0  0
   -0.2333   -0.2167    0.0000 O   0  0  0  0  0  0  0  0  0  0  0  0
   -2.3750    1.8375    0.0000 C   0  0  0  0  0  0  0  0  0  0  0  0
   -2.3750    1.0125    0.0000 C   0  0  0  0  0  0  0  0  0  0  0  0
   -0.2375    2.2583    0.0000 O   0  0  0  0  0  0  0  0  0  0  0  0
   -3.0875    2.2500    0.0000 O   0  0  0  0  0  0  0  0  0  0  0  0
    0.4792    1.0208    0.0000 C   0  0  0  0  0  0  0  0  0  0  0  0
    0.4750    1.8500    0.0000 C   0  0  0  0  0  0  0  0  0  0  0  0
   -3.0875    3.0833    0.0000 C   0  0  0  0  0  0  0  0  0  0  0  0
  2  1  2  0
  3  2  1  0
  4  1  1  0
  5  1  1  0
  6  5  2  0
  7  8  1  0
  8  4  2  0
  9  2  1  0
 10  7  1  0
 11  5  1  0
 12  9  1  0
 13 10  1  0
  7  3  2  0
M  END
>  <ID>  (2287) 


>  <MOLENAME>  (2287) 
PEONOL METHYL ETHER

>  <therap>  (2287) 
nan

>  <ref>  (2287) 
nan

>  <cas#>  (2287) 
829-20-9

>  <source>  (2287) 
synthetic

>  <status>  (2287) 
undetermined activity

>  <tradename>  (2287) 
nan

>  <SMILES>  (2287) 
COc1cc(OC)c(C(C)=O)cc1

>  <standardized_failed>  (2287) 
False

$$$$

     RDKit          2D

 32 36  0  0  0  0  0  0  0  0999 V2000
    5.1375   -2.7292    0.0000 C   0  0  0  0  0  0  0  0  0  0  0  0
    3.7250   -2.7167    0.0000 C   0  0  0  0  0  0  0  0  0  0  0  0
    7.2792   -1.5417    0.0000 C   0  0  0  0  0  0  0  0  0  0  0  0
    6.5792   -1.1125    0.0000 C   0  0  0  0  0  0  0  0  0  0  0  0
    5.8625   -1.5125    0.0000 C   0  0  0  0  0  0  0  0  0  0  0  0
    4.4292   -2.3125    0.0000 C   0  0  0  0  0  0  0  0  0  0  0  0
    5.8417   -2.3375    0.0000 C   0  0  0  0  0  0  0  0  0  0  0  0
    3.7167   -3.5417    0.0000 C   0  0  0  0  0  0  0  0  0  0  0  0
    3.0042   -3.9542    0.0000 C   0  0  0  0  0  0  0  0  0  0  0  0
    6.7667   -0.3167    0.0000 C   0  0  0  0  0  0  0  0  0  0  0  0
    8.0750   -1.7542    0.0000 C   0  0  0  0  0  0  0  0  0  0  0  0
    5.1375   -3.5500    0.0000 C   0  0  0  0  0  0  0  0  0  0  0  0
    7.2667   -2.3625    0.0000 C   0  0  0  0  0  0  0  0  0  0  0  0
    7.9042   -1.0042    0.0000 C   0  0  0  0  0  0  0  0  0  0  0  0
    5.1542   -1.0917    0.0000 C   0  0  0  0  0  0  0  0  0  0  0  0
    3.0125   -2.3042    0.0000 C   0  0  0  0  0  0  0  0  0  0  0  0
    4.4417   -1.4917    0.0000 C   0  0  0  0  0  0  0  0  0  0  0  0
    4.4250   -3.9542    0.0000 C   0  0  0  0  0  0  0  0  0  0  0  0
    6.5417   -2.7542    0.0000 C   0  0  0  0  0  0  0  0  0  0  0  0
    7.5875   -0.2500    0.0000 C   0  0  0  0  0  0  0  0  0  0  0  0
    6.2292    0.3125    0.0000 C   0  0  0  0  0  0  0  0  0  0  0  0
    2.2917   -3.5417    0.0000 C   0  0  0  0  0  0  0  0  0  0  0  0
    8.2917   -2.5500    0.0000 O   0  0  0  0  0  0  0  0  0  0  0  0
    2.3000   -2.7167    0.0000 C   0  0  0  0  0  0  0  0  0  0  0  0
    6.5042    1.0958    0.0000 C   0  0  0  0  0  0  0  0  0  0  0  0
    8.6542   -1.1667    0.0000 O   0  0  0  0  0  0  0  0  0  0  0  0
    5.1292   -1.9042    0.0000 C   0  0  0  0  0  0  0  0  0  0  0  0
    3.7167   -1.8917    0.0000 C   0  0  0  0  0  0  0  0  0  0  0  0
    2.4167   -4.5375    0.0000 C   0  0  0  0  0  0  0  0  0  0  0  0
    3.5875   -4.5375    0.0000 C   0  0  0  0  0  0  0  0  0  0  0  0
    1.5792   -3.9500    0.0000 O   0  0  0  0  0  0  0  0  0  0  0  0
    5.4167    0.1625    0.0000 C   0  0  0  0  0  0  0  0  0  0  0  0
  2  6  1  0
  3 13  1  0
  4  5  1  0
  5  7  1  0
  6  1  1  0
  7  1  1  0
  8 18  1  0
  9  8  1  0
 10  4  1  0
  3 11  1  1
 12  1  1  0
 13 19  1  0
 14  3  1  0
  5 15  1  6
 16  2  1  0
 17  6  1  0
 18 12  1  0
 19  7  1  0
 20 10  1  0
 10 21  1  6
 22  9  1  0
 23 11  2  0
 24 16  1  0
 25 21  2  0
 26 11  1  0
  1 27  1  1
  2 28  1  1
 29  9  1  0
 30  9  1  0
 22 31  1  6
 32 21  1  0
 15 17  1  0
  2  8  1  0
  4  3  1  0
 24 22  1  0
 14 20  1  0
M  END
>  <ID>  (2288) 


>  <MOLENAME>  (2288) 
BETULINIC ACID

>  <therap>  (2288) 
antineoplastic

>  <ref>  (2288) 
Acta Chem Scand 19: 1661 (1965); Nature Medicine 1: 1046 (1995)

>  <cas#>  (2288) 
472-15-1

>  <source>  (2288) 
Betula spp.

>  <status>  (2288) 
experimental

>  <tradename>  (2288) 
nan

>  <SMILES>  (2288) 
C=C(C)[C@@H]1CC[C@]2(C(=O)O)CCC3[C@H](CCC4[C@@]3(C)CCC3C(C)(C)[C@H](O)CC[C@@]34C)C12

>  <standardized_failed>  (2288) 
False

$$$$

     RDKit          2D

 36 38  0  0  0  0  0  0  0  0999 V2000
    5.0250   -3.3125    0.0000 O   0  0  0  0  0  0  0  0  0  0  0  0
    4.3125   -4.5542    0.0000 C   0  0  0  0  0  0  0  0  0  0  0  0
    4.3125   -3.7292    0.0000 C   0  0  0  0  0  0  0  0  0  0  0  0
    3.6000   -4.9667    0.0000 C   0  0  0  0  0  0  0  0  0  0  0  0
    5.7375   -3.7167    0.0000 C   0  0  0  0  0  0  0  0  0  0  0  0
    5.7417   -4.5500    0.0000 C   0  0  0  0  0  0  0  0  0  0  0  0
    5.0292   -4.9667    0.0000 C   0  0  0  0  0  0  0  0  0  0  0  0
    7.1500   -2.0667    0.0000 C   0  0  0  0  0  0  0  0  0  0  0  0
    6.4500   -3.3042    0.0000 C   0  0  0  0  0  0  0  0  0  0  0  0
    3.6000   -3.3167    0.0000 C   0  0  0  0  0  0  0  0  0  0  0  0
    2.8875   -3.7292    0.0000 C   0  0  0  0  0  0  0  0  0  0  0  0
    2.8875   -4.5542    0.0000 C   0  0  0  0  0  0  0  0  0  0  0  0
    7.8750   -2.4750    0.0000 C   0  0  0  0  0  0  0  0  0  0  0  0
    3.6000   -5.7917    0.0000 O   0  0  0  0  0  0  0  0  0  0  0  0
    6.4417   -2.4792    0.0000 C   0  0  0  0  0  0  0  0  0  0  0  0
    6.4625   -4.9542    0.0000 O   0  0  0  0  0  0  0  0  0  0  0  0
    7.1417   -1.2417    0.0000 O   0  0  0  0  0  0  0  0  0  0  0  0
    8.5875   -2.0542    0.0000 O   0  0  0  0  0  0  0  0  0  0  0  0
    2.8875   -6.2125    0.0000 C   0  0  0  0  0  0  0  0  0  0  0  0
    6.4625   -5.7792    0.0000 C   0  0  0  0  0  0  0  0  0  0  0  0
    7.8500   -0.8167    0.0000 C   0  0  0  0  0  0  0  0  0  0  0  0
    9.3000   -2.4625    0.0000 C   0  0  0  0  0  0  0  0  0  0  0  0
    2.1750   -2.4917    0.0000 C   0  0  0  0  0  0  0  0  0  0  0  0
    2.1750   -3.3167    0.0000 O   0  0  0  0  0  0  0  0  0  0  0  0
    7.1625   -3.7167    0.0000 C   0  0  0  0  0  0  0  0  0  0  0  0
    7.8750   -3.3000    0.0000 C   0  0  0  0  0  0  0  0  0  0  0  0
    2.8875   -7.0375    0.0000 O   0  0  0  0  0  0  0  0  0  0  0  0
    8.5750   -1.2250    0.0000 O   0  0  0  0  0  0  0  0  0  0  0  0
    9.3042   -3.2875    0.0000 O   0  0  0  0  0  0  0  0  0  0  0  0
    5.7500   -6.2000    0.0000 O   0  0  0  0  0  0  0  0  0  0  0  0
    2.8875   -2.0792    0.0000 O   0  0  0  0  0  0  0  0  0  0  0  0
    2.1750   -5.8000    0.0000 C   0  0  0  0  0  0  0  0  0  0  0  0
   10.0125   -2.0417    0.0000 C   0  0  0  0  0  0  0  0  0  0  0  0
    7.8417    0.0083    0.0000 C   0  0  0  0  0  0  0  0  0  0  0  0
    7.1792   -6.1917    0.0000 C   0  0  0  0  0  0  0  0  0  0  0  0
    1.4542   -2.0792    0.0000 C   0  0  0  0  0  0  0  0  0  0  0  0
  2  3  2  0
  3  1  1  0
  4  2  1  0
  5  1  1  6
  6  5  1  0
  7  6  1  0
  8 15  2  0
  5  9  1  0
 10  3  1  0
 11 10  2  0
 12 11  1  0
 13 26  2  0
 14  4  1  0
 15  9  1  0
  6 16  1  1
 17  8  1  0
 18 13  1  0
 19 14  1  0
 20 16  1  0
 21 17  1  0
 22 18  1  0
 23 24  1  0
 24 11  1  0
 25  9  2  0
 26 25  1  0
 27 19  2  0
 28 21  2  0
 29 22  2  0
 30 20  2  0
 31 23  2  0
 32 19  1  0
 33 22  1  0
 34 21  1  0
 35 20  1  0
 36 23  1  0
  7  2  1  0
 12  4  2  0
 13  8  1  0
M  END
>  <ID>  (2289) 


>  <MOLENAME>  (2289) 
CATECHIN PENTAACETATE

>  <therap>  (2289) 
nan

>  <ref>  (2289) 
nan

>  <cas#>  (2289) 
nan

>  <source>  (2289) 
derivative

>  <status>  (2289) 
undetermined activity

>  <tradename>  (2289) 
nan

>  <SMILES>  (2289) 
CC(=O)Oc1cc2c(C[C@H](OC(C)=O)[C@@H](c3ccc(OC(C)=O)c(OC(C)=O)c3)O2)c(OC(C)=O)c1

>  <standardized_failed>  (2289) 
False

$$$$

     RDKit          2D

 29 32  0  0  0  0  0  0  0  0999 V2000
    2.1500   -0.9917    0.0000 C   0  0  0  0  0  0  0  0  0  0  0  0
    0.7042   -0.9917    0.0000 C   0  0  0  0  0  0  0  0  0  0  0  0
    0.7125   -0.1542    0.0000 C   0  0  0  0  0  0  0  0  0  0  0  0
    1.4250   -1.4125    0.0000 C   0  0  0  0  0  0  0  0  0  0  0  0
    2.1500   -0.1542    0.0000 C   0  0  0  0  0  0  0  0  0  0  0  0
    1.4292    0.2583    0.0000 C   0  0  0  0  0  0  0  0  0  0  0  0
    2.8667   -1.4042    0.0000 C   0  0  0  0  0  0  0  0  0  0  0  0
    3.5792   -0.1542    0.0000 C   0  0  0  0  0  0  0  0  0  0  0  0
    3.5792   -0.9917    0.0000 C   0  0  0  0  0  0  0  0  0  0  0  0
    2.8625    0.2500    0.0000 C   0  0  0  0  0  0  0  0  0  0  0  0
    4.3000    0.2583    0.0000 C   0  0  0  0  0  0  0  0  0  0  0  0
    4.2917    1.0833    0.0000 C   0  0  0  0  0  0  0  0  0  0  0  0
   -0.0083   -1.4042    0.0000 C   0  0  0  0  0  0  0  0  0  0  0  0
   -0.0083    0.2500    0.0000 C   0  0  0  0  0  0  0  0  0  0  0  0
    4.3000   -1.4125    0.0000 C   0  0  0  0  0  0  0  0  0  0  0  0
    1.4250   -2.2375    0.0000 O   0  0  0  0  0  0  0  0  0  0  0  0
    1.4292    1.0833    0.0000 O   0  0  0  0  0  0  0  0  0  0  0  0
    5.0167   -0.1542    0.0000 C   0  0  0  0  0  0  0  0  0  0  0  0
    3.5792    1.4958    0.0000 O   0  0  0  0  0  0  0  0  0  0  0  0
    5.0250   -0.9917    0.0000 C   0  0  0  0  0  0  0  0  0  0  0  0
   -0.7208   -0.1667    0.0000 C   0  0  0  0  0  0  0  0  0  0  0  0
   -0.7208   -0.9917    0.0000 C   0  0  0  0  0  0  0  0  0  0  0  0
    2.8667   -2.2292    0.0000 O   0  0  0  0  0  0  0  0  0  0  0  0
    5.0125    1.5000    0.0000 O   0  0  0  0  0  0  0  0  0  0  0  0
   -0.0083   -2.2292    0.0000 O   0  0  0  0  0  0  0  0  0  0  0  0
   -0.0083    1.0750    0.0000 O   0  0  0  0  0  0  0  0  0  0  0  0
    5.7292    0.2583    0.0000 C   0  0  0  0  0  0  0  0  0  0  0  0
    5.7167    1.0833    0.0000 C   0  0  0  0  0  0  0  0  0  0  0  0
    6.4500   -0.1500    0.0000 C   0  0  0  0  0  0  0  0  0  0  0  0
  2  4  1  0
  3  6  1  0
  4  1  1  0
  5  1  2  0
  6  5  1  0
  7  1  1  0
  8  9  1  0
  9  7  2  0
 10  5  1  0
 11  8  1  0
 11 12  1  0
 13  2  2  0
 14  3  2  0
 15  9  1  0
 16  4  2  0
 17  6  2  0
 18 20  1  0
 19 12  2  0
 20 15  2  0
 21 14  1  0
 22 13  1  0
 23  7  1  0
 24 12  1  0
 25 13  1  0
 26 14  1  0
 18 27  1  0
 28 24  1  0
 29 27  1  0
 10  8  2  0
  2  3  1  0
 22 21  2  0
 18 11  2  0
M  END
>  <ID>  (2290) 


>  <MOLENAME>  (2290) 
BISANHYDRORUTILANTINONE

>  <therap>  (2290) 
antibacterial

>  <ref>  (2290) 
Naturwissenschaften 52: 539 (1965); Chem Ber 100: 256 (1967); Tet Lett 1968: 471

>  <cas#>  (2290) 
749-18-8

>  <source>  (2290) 
Streptomyces spp; also rutilantinone

>  <status>  (2290) 
experimental

>  <tradename>  (2290) 
nan

>  <SMILES>  (2290) 
CCc1c(C(=O)OC)c2cc3c(C(=O)c4c(O)ccc(O)c4C3=O)c(O)c2cc1

>  <standardized_failed>  (2290) 
False

$$$$

     RDKit          2D

 21 23  0  0  0  0  0  0  0  0999 V2000
    3.5500   -0.5292    0.0000 C   0  0  0  0  0  0  0  0  0  0  0  0
    3.5500   -1.2792    0.0000 C   0  0  0  0  0  0  0  0  0  0  0  0
    2.2167   -1.2792    0.0000 C   0  0  0  0  0  0  0  0  0  0  0  0
    2.8875   -1.6500    0.0000 C   0  0  0  0  0  0  0  0  0  0  0  0
    2.8875   -0.1542    0.0000 O   0  0  0  0  0  0  0  0  0  0  0  0
    2.2167   -0.5292    0.0000 C   0  0  0  0  0  0  0  0  0  0  0  0
    4.2000   -0.1542    0.0000 C   0  0  0  0  0  0  0  0  0  0  0  0
    1.5625   -1.6500    0.0000 C   0  0  0  0  0  0  0  0  0  0  0  0
    2.8875   -2.3917    0.0000 O   0  0  0  0  0  0  0  0  0  0  0  0
    4.2000    0.5708    0.0000 C   0  0  0  0  0  0  0  0  0  0  0  0
    1.5625   -0.1542    0.0000 C   0  0  0  0  0  0  0  0  0  0  0  0
    0.9042   -1.2792    0.0000 C   0  0  0  0  0  0  0  0  0  0  0  0
    4.8625    0.9458    0.0000 C   0  0  0  0  0  0  0  0  0  0  0  0
    0.9042   -0.5292    0.0000 C   0  0  0  0  0  0  0  0  0  0  0  0
    0.2500   -1.6500    0.0000 O   0  0  0  0  0  0  0  0  0  0  0  0
    4.8625    1.6958    0.0000 O   0  0  0  0  0  0  0  0  0  0  0  0
    4.8625   -0.5292    0.0000 C   0  0  0  0  0  0  0  0  0  0  0  0
    5.5125   -0.1542    0.0000 C   0  0  0  0  0  0  0  0  0  0  0  0
    5.5125    0.5708    0.0000 C   0  0  0  0  0  0  0  0  0  0  0  0
    0.2417   -2.4042    0.0000 C   0  0  0  0  0  0  0  0  0  0  0  0
    5.5042    2.0708    0.0000 C   0  0  0  0  0  0  0  0  0  0  0  0
  2  1  2  0
  3  6  2  0
  4  2  1  0
  5  1  1  0
  6  5  1  0
  7  1  1  0
  8  3  1  0
  9  4  2  0
 10  7  2  0
 11  6  1  0
 12 14  1  0
 13 10  1  0
 14 11  2  0
 15 12  1  0
 16 13  1  0
 17  7  1  0
 18 17  2  0
 19 18  1  0
 20 15  1  0
 21 16  1  0
  3  4  1  0
 19 13  2  0
  8 12  2  0
M  END
>  <ID>  (2291) 


>  <MOLENAME>  (2291) 
6.3'-DIMETHOXYFLAVONE

>  <therap>  (2291) 
nan

>  <ref>  (2291) 
Aust J Chem 34:1779 (1981)

>  <cas#>  (2291) 
79786-40-6

>  <source>  (2291) 
Pimelia decora

>  <status>  (2291) 
undetermined activity

>  <tradename>  (2291) 
nan

>  <SMILES>  (2291) 
COc1cccc(-c2cc(=O)c3c(ccc(OC)c3)o2)c1

>  <standardized_failed>  (2291) 
False

$$$$

     RDKit          2D

 21 23  0  0  0  0  0  0  0  0999 V2000
    3.4917   -0.1667    0.0000 C   0  0  0  0  0  0  0  0  0  0  0  0
    2.6792   -0.3375    0.0000 C   0  0  0  0  0  0  0  0  0  0  0  0
    2.4167   -1.1250    0.0000 C   0  0  0  0  0  0  0  0  0  0  0  0
    4.0417   -0.7917    0.0000 C   0  0  0  0  0  0  0  0  0  0  0  0
    3.7792   -1.5792    0.0000 C   0  0  0  0  0  0  0  0  0  0  0  0
    1.6292    0.0333    0.0000 C   0  0  0  0  0  0  0  0  0  0  0  0
    2.9667   -1.7417    0.0000 C   0  0  0  0  0  0  0  0  0  0  0  0
    3.7542    0.6125    0.0000 C   0  0  0  0  0  0  0  0  0  0  0  0
    1.6000   -1.4375    0.0000 C   0  0  0  0  0  0  0  0  0  0  0  0
    2.1167    0.7458    0.0000 C   0  0  0  0  0  0  0  0  0  0  0  0
    3.1917    1.1583    0.0000 O   0  0  0  0  0  0  0  0  0  0  0  0
    0.8500   -0.5000    0.0000 C   0  0  0  0  0  0  0  0  0  0  0  0
    1.7250   -0.5625    0.0000 C   0  0  0  0  0  0  0  0  0  0  0  0
    4.3667   -2.1625    0.0000 O   0  0  0  0  0  0  0  0  0  0  0  0
    2.6625    0.3750    0.0000 O   0  0  0  0  0  0  0  0  0  0  0  0
    1.6625    1.3125    0.0000 O   0  0  0  0  0  0  0  0  0  0  0  0
    4.3167   -0.1667    0.0000 C   0  0  0  0  0  0  0  0  0  0  0  0
    4.8542   -0.6292    0.0000 O   0  0  0  0  0  0  0  0  0  0  0  0
    1.0417    0.6208    0.0000 O   0  0  0  0  0  0  0  0  0  0  0  0
    4.7542   -1.2042    0.0000 C   0  0  0  0  0  0  0  0  0  0  0  0
    1.0125   -2.0167    0.0000 C   0  0  0  0  0  0  0  0  0  0  0  0
  2  1  1  0
  3  2  1  0
  4  1  1  0
  5  4  1  0
  6  2  1  0
  7  5  1  0
  1  8  1  0
  9  3  1  0
 10 11  1  0
 11  8  1  0
 12  6  1  0
  3 13  1  1
 14  5  2  0
  2 15  1  6
 16 10  2  0
  1 17  1  6
  4 18  1  0
  6 19  1  1
  4 20  1  1
  9 21  1  1
  3  7  1  0
 12  9  1  0
 13 10  1  0
M  END
>  <ID>  (2292) 


>  <MOLENAME>  (2292) 
PSEUDO-ANISATIN

>  <therap>  (2292) 
GABA antagonist

>  <ref>  (2292) 
J Am Chem Soc 74: 3211 (1952)

>  <cas#>  (2292) 
31090-37-6

>  <source>  (2292) 
Illicium anisatum

>  <status>  (2292) 
experimental

>  <tradename>  (2292) 
nan

>  <SMILES>  (2292) 
C[C@H]1C[C@@H](O)[C@]2(O)[C@@]13CC(=O)OC[C@@]2(C)[C@](C)(O)C(=O)C3

>  <standardized_failed>  (2292) 
False

$$$$

     RDKit          2D

 22 24  0  0  0  0  0  0  0  0999 V2000
    3.7917   -1.0625    0.0000 C   0  0  0  0  0  0  0  0  0  0  0  0
    3.1375   -1.4375    0.0000 C   0  0  0  0  0  0  0  0  0  0  0  0
    2.4792   -1.0625    0.0000 C   0  0  0  0  0  0  0  0  0  0  0  0
    3.7917   -0.3042    0.0000 C   0  0  0  0  0  0  0  0  0  0  0  0
    4.4417   -1.4375    0.0000 C   0  0  0  0  0  0  0  0  0  0  0  0
    2.4792   -0.3042    0.0000 C   0  0  0  0  0  0  0  0  0  0  0  0
    3.1375    0.0708    0.0000 O   0  0  0  0  0  0  0  0  0  0  0  0
    5.0917   -1.0625    0.0000 C   0  0  0  0  0  0  0  0  0  0  0  0
    1.8292   -1.4375    0.0000 C   0  0  0  0  0  0  0  0  0  0  0  0
    1.8292    0.0708    0.0000 C   0  0  0  0  0  0  0  0  0  0  0  0
    5.7375   -1.4375    0.0000 C   0  0  0  0  0  0  0  0  0  0  0  0
    4.4417   -2.1875    0.0000 C   0  0  0  0  0  0  0  0  0  0  0  0
    3.1375   -2.1875    0.0000 O   0  0  0  0  0  0  0  0  0  0  0  0
    1.1792   -0.3042    0.0000 C   0  0  0  0  0  0  0  0  0  0  0  0
    5.7375   -2.1875    0.0000 C   0  0  0  0  0  0  0  0  0  0  0  0
    1.1792   -1.0625    0.0000 C   0  0  0  0  0  0  0  0  0  0  0  0
    5.0917   -2.5625    0.0000 C   0  0  0  0  0  0  0  0  0  0  0  0
    5.0917   -0.3125    0.0000 O   0  0  0  0  0  0  0  0  0  0  0  0
    0.5292    0.0708    0.0000 O   0  0  0  0  0  0  0  0  0  0  0  0
    6.3875   -2.5625    0.0000 O   0  0  0  0  0  0  0  0  0  0  0  0
    4.4417    0.0625    0.0000 C   0  0  0  0  0  0  0  0  0  0  0  0
    6.3875   -3.3125    0.0000 C   0  0  0  0  0  0  0  0  0  0  0  0
  2  1  1  0
  3  2  1  0
  4  1  2  0
  5  1  1  0
  6  7  1  0
  7  4  1  0
  8  5  2  0
  9  3  2  0
 10  6  2  0
 11  8  1  0
 12  5  1  0
 13  2  2  0
 14 10  1  0
 15 17  1  0
 16  9  1  0
 17 12  2  0
 18  8  1  0
 19 14  1  0
 20 15  1  0
 21 18  1  0
 22 20  1  0
  3  6  1  0
 15 11  2  0
 14 16  2  0
M  END
>  <ID>  (2293) 


>  <MOLENAME>  (2293) 
2'-METHOXYFORMONETIN

>  <therap>  (2293) 
nan

>  <ref>  (2293) 
Phytochemistry 41: 661 (1996)

>  <cas#>  (2293) 
nan

>  <source>  (2293) 
Eschscholtzia californica

>  <status>  (2293) 
undetermined activity

>  <tradename>  (2293) 
nan

>  <SMILES>  (2293) 
COc1cc(OC)c(-c2coc3cc(O)ccc3c2=O)cc1

>  <standardized_failed>  (2293) 
False

$$$$

     RDKit          2D

 46 52  0  0  0  0  0  0  0  0999 V2000
    3.0417   -2.1375    0.0000 C   0  0  0  0  0  0  0  0  0  0  0  0
    2.3292   -2.5500    0.0000 C   0  0  0  0  0  0  0  0  0  0  0  0
    4.5792   -2.9667    0.0000 O   0  0  0  0  0  0  0  0  0  0  0  0
    2.3292   -3.2500    0.0000 C   0  0  0  0  0  0  0  0  0  0  0  0
    6.6042   -2.6500    0.0000 C   0  0  0  0  0  0  0  0  0  0  0  0
    3.0417   -1.3042    0.0000 C   0  0  0  0  0  0  0  0  0  0  0  0
    1.6167   -2.1292    0.0000 C   0  0  0  0  0  0  0  0  0  0  0  0
    7.3250   -3.0542    0.0000 C   0  0  0  0  0  0  0  0  0  0  0  0
    5.1792   -2.6500    0.0000 C   0  0  0  0  0  0  0  0  0  0  0  0
    1.6125   -3.6625    0.0000 N   0  0  0  0  0  0  0  0  0  0  0  0
    8.0375   -2.6417    0.0000 N   0  0  0  0  0  0  0  0  0  0  0  0
    5.8917   -3.0625    0.0000 C   0  0  0  0  0  0  0  0  0  0  0  0
    6.6042   -1.8250    0.0000 C   0  0  0  0  0  0  0  0  0  0  0  0
    2.3292   -0.8917    0.0000 C   0  0  0  0  0  0  0  0  0  0  0  0
    3.7625   -5.5917    0.0000 C   0  0  0  0  0  0  0  0  0  0  0  0
    4.4792   -6.0042    0.0000 O   0  0  0  0  0  0  0  0  0  0  0  0
    1.6167   -1.3125    0.0000 C   0  0  0  0  0  0  0  0  0  0  0  0
    5.1792   -1.8167    0.0000 C   0  0  0  0  0  0  0  0  0  0  0  0
    5.8917   -1.4042    0.0000 C   0  0  0  0  0  0  0  0  0  0  0  0
    3.0417   -3.6625    0.0000 C   0  0  0  0  0  0  0  0  0  0  0  0
    7.3250   -4.3417    0.0000 C   0  0  0  0  0  0  0  0  0  0  0  0
    3.7542   -4.7667    0.0000 C   0  0  0  0  0  0  0  0  0  0  0  0
    3.0417   -6.0042    0.0000 C   0  0  0  0  0  0  0  0  0  0  0  0
    0.9000   -2.5417    0.0000 C   0  0  0  0  0  0  0  0  0  0  0  0
    0.8917   -3.2417    0.0000 C   0  0  0  0  0  0  0  0  0  0  0  0
    8.0292   -1.8167    0.0000 C   0  0  0  0  0  0  0  0  0  0  0  0
    3.0417   -4.3625    0.0000 C   0  0  0  0  0  0  0  0  0  0  0  0
    7.3167   -1.4042    0.0000 C   0  0  0  0  0  0  0  0  0  0  0  0
    5.1917   -5.5875    0.0000 C   0  0  0  0  0  0  0  0  0  0  0  0
    2.3292   -5.5917    0.0000 C   0  0  0  0  0  0  0  0  0  0  0  0
    3.7542   -0.8917    0.0000 O   0  0  0  0  0  0  0  0  0  0  0  0
    6.6125   -4.7625    0.0000 C   0  0  0  0  0  0  0  0  0  0  0  0
    2.3292   -4.7667    0.0000 C   0  0  0  0  0  0  0  0  0  0  0  0
    2.3167   -0.0667    0.0000 O   0  0  0  0  0  0  0  0  0  0  0  0
    4.4625   -1.4042    0.0000 O   0  0  0  0  0  0  0  0  0  0  0  0
    5.1792   -4.7667    0.0000 C   0  0  0  0  0  0  0  0  0  0  0  0
    5.9042   -6.0000    0.0000 C   0  0  0  0  0  0  0  0  0  0  0  0
    6.6167   -5.5875    0.0000 C   0  0  0  0  0  0  0  0  0  0  0  0
    5.8917   -4.3500    0.0000 C   0  0  0  0  0  0  0  0  0  0  0  0
    3.0417   -6.8292    0.0000 O   0  0  0  0  0  0  0  0  0  0  0  0
    1.6167   -4.4667    0.0000 C   0  0  0  0  0  0  0  0  0  0  0  0
    8.7500   -3.0542    0.0000 C   0  0  0  0  0  0  0  0  0  0  0  0
    3.7542   -0.0667    0.0000 C   0  0  0  0  0  0  0  0  0  0  0  0
    1.6125    0.3375    0.0000 C   0  0  0  0  0  0  0  0  0  0  0  0
    4.4625   -0.5792    0.0000 C   0  0  0  0  0  0  0  0  0  0  0  0
    2.3292   -7.2417    0.0000 C   0  0  0  0  0  0  0  0  0  0  0  0
  2  1  1  0
  3  1  1  0
  4  2  1  0
  5 12  1  0
  6  1  2  0
  7  2  2  0
  8  5  1  0
  9  3  1  0
  4 10  1  6
  8 11  1  1
 12  9  2  0
 13 19  1  0
 14  6  1  0
 15 22  2  0
 16 15  1  0
 17 14  2  0
 18  9  1  0
 19 18  2  0
  4 20  1  0
  8 21  1  0
 22 27  1  0
 23 30  2  0
 24  7  1  0
 25 24  1  0
 26 28  1  0
 27 20  1  0
 28 13  1  0
 29 16  1  0
 30 33  1  0
 31  6  1  0
 32 21  1  0
 33 27  2  0
 34 14  1  0
 35 18  1  0
 36 39  2  0
 37 38  1  0
 38 32  2  0
 39 32  1  0
 40 23  1  0
 41 10  1  0
 42 11  1  0
 43 31  1  0
 44 34  1  0
 45 35  1  0
 46 40  1  0
  7 17  1  0
 25 10  1  0
 13  5  2  0
 26 11  1  0
 23 15  1  0
 29 36  1  0
 37 29  2  0
M  END
>  <ID>  (2294) 


>  <MOLENAME>  (2294) 
TETRANDRINE

>  <therap>  (2294) 
analgesic, antineoplastic, antihypertensive, lymphotoxin

>  <ref>  (2294) 
Phytochemistry 14: 2524 (1975); Life Sci 68: 841 (2001)

>  <cas#>  (2294) 
518-34-3

>  <source>  (2294) 
Triclisia and Cyclea spp

>  <status>  (2294) 
experimental

>  <tradename>  (2294) 
nan

>  <SMILES>  (2294) 
COc1ccc2cc1Oc1ccc(cc1)C[C@H]1c3c(cc(OC)c(c3)Oc3c(OC)c(OC)cc4c3[C@H](C2)N(C)CC4)CCN1C

>  <standardized_failed>  (2294) 
False

$$$$

     RDKit          2D

 19 20  0  0  0  0  0  0  0  0999 V2000
    1.2917   -0.6250    0.0000 C   0  0  0  0  0  0  0  0  0  0  0  0
    0.5792   -0.2125    0.0000 C   0  0  0  0  0  0  0  0  0  0  0  0
    2.0042   -0.2042    0.0000 C   0  0  0  0  0  0  0  0  0  0  0  0
    2.7250   -0.6167    0.0000 C   0  0  0  0  0  0  0  0  0  0  0  0
   -0.1333   -0.6250    0.0000 C   0  0  0  0  0  0  0  0  0  0  0  0
    1.2917   -1.4542    0.0000 C   0  0  0  0  0  0  0  0  0  0  0  0
    2.7250   -1.4417    0.0000 C   0  0  0  0  0  0  0  0  0  0  0  0
    2.0042    0.6208    0.0000 O   0  0  0  0  0  0  0  0  0  0  0  0
   -0.1333   -1.4542    0.0000 C   0  0  0  0  0  0  0  0  0  0  0  0
    3.4417   -1.8542    0.0000 C   0  0  0  0  0  0  0  0  0  0  0  0
    0.5750    0.6125    0.0000 O   0  0  0  0  0  0  0  0  0  0  0  0
    0.5792   -1.8667    0.0000 C   0  0  0  0  0  0  0  0  0  0  0  0
    4.8750   -2.6667    0.0000 C   0  0  0  0  0  0  0  0  0  0  0  0
    4.1500   -1.4375    0.0000 C   0  0  0  0  0  0  0  0  0  0  0  0
    3.4417   -2.6792    0.0000 C   0  0  0  0  0  0  0  0  0  0  0  0
    4.1542   -3.0875    0.0000 C   0  0  0  0  0  0  0  0  0  0  0  0
    4.8667   -1.8417    0.0000 C   0  0  0  0  0  0  0  0  0  0  0  0
   -0.8500   -1.8625    0.0000 O   0  0  0  0  0  0  0  0  0  0  0  0
    5.5875   -3.0792    0.0000 O   0  0  0  0  0  0  0  0  0  0  0  0
  2  1  2  0
  3  1  1  0
  4  3  1  0
  5  2  1  0
  6  1  1  0
  7  4  2  0
  8  3  2  0
  9 12  1  0
 10  7  1  0
 11  2  1  0
 12  6  2  0
 13 16  2  0
 14 10  1  0
 15 10  2  0
 16 15  1  0
 17 14  2  0
 18  9  1  0
 19 13  1  0
  9  5  2  0
 13 17  1  0
M  END
>  <ID>  (2295) 


>  <MOLENAME>  (2295) 
ISOLIQUIRITIGENIN

>  <therap>  (2295) 
aldose reductase inhibitor, antineoplastic, antiinflammatory

>  <ref>  (2295) 
J Chem Soc 1953: 2183; Eur J Biochem 212: 87 (1992)

>  <cas#>  (2295) 
961-29-5

>  <source>  (2295) 
widespread in Fabaceae

>  <status>  (2295) 
experimental

>  <tradename>  (2295) 
nan

>  <SMILES>  (2295) 
O=C(/C=C/c1ccc(O)cc1)c1c(O)cc(O)cc1

>  <standardized_failed>  (2295) 
False

$$$$

     RDKit          2D

 42 43  0  0  0  0  0  0  0  0999 V2000
   12.5417   -1.2917    0.0000 C   0  0  0  0  0  0  0  0  0  0  0  0
   -0.9958   -1.7417    0.0000 C   0  0  0  0  0  0  0  0  0  0  0  0
   -0.9958   -2.5667    0.0000 C   0  0  0  0  0  0  0  0  0  0  0  0
   12.5417   -0.4667    0.0000 C   0  0  0  0  0  0  0  0  0  0  0  0
   11.8292   -1.7042    0.0000 C   0  0  0  0  0  0  0  0  0  0  0  0
   -0.2833   -1.3292    0.0000 C   0  0  0  0  0  0  0  0  0  0  0  0
   -1.7083   -1.3292    0.0000 C   0  0  0  0  0  0  0  0  0  0  0  0
   13.2542   -1.7125    0.0000 C   0  0  0  0  0  0  0  0  0  0  0  0
   13.2542   -0.0625    0.0000 C   0  0  0  0  0  0  0  0  0  0  0  0
   -1.7083   -2.9792    0.0000 C   0  0  0  0  0  0  0  0  0  0  0  0
   11.1167   -1.3000    0.0000 C   0  0  0  0  0  0  0  0  0  0  0  0
    0.4292   -1.7417    0.0000 C   0  0  0  0  0  0  0  0  0  0  0  0
    8.9792   -1.7167    0.0000 C   0  0  0  0  0  0  0  0  0  0  0  0
    2.5667   -1.3250    0.0000 C   0  0  0  0  0  0  0  0  0  0  0  0
    1.1417   -1.3292    0.0000 C   0  0  0  0  0  0  0  0  0  0  0  0
   10.4042   -1.7125    0.0000 C   0  0  0  0  0  0  0  0  0  0  0  0
    7.5542   -1.7167    0.0000 C   0  0  0  0  0  0  0  0  0  0  0  0
    3.9917   -1.3167    0.0000 C   0  0  0  0  0  0  0  0  0  0  0  0
    9.6917   -1.3042    0.0000 C   0  0  0  0  0  0  0  0  0  0  0  0
    1.8542   -1.7375    0.0000 C   0  0  0  0  0  0  0  0  0  0  0  0
    3.2792   -1.7292    0.0000 C   0  0  0  0  0  0  0  0  0  0  0  0
    8.2667   -1.3042    0.0000 C   0  0  0  0  0  0  0  0  0  0  0  0
   -2.4125   -1.7417    0.0000 C   0  0  0  0  0  0  0  0  0  0  0  0
   13.9667   -1.2917    0.0000 C   0  0  0  0  0  0  0  0  0  0  0  0
    6.8417   -1.3125    0.0000 C   0  0  0  0  0  0  0  0  0  0  0  0
    4.7042   -1.7292    0.0000 C   0  0  0  0  0  0  0  0  0  0  0  0
   13.9667   -0.4667    0.0000 C   0  0  0  0  0  0  0  0  0  0  0  0
   -2.4125   -2.5667    0.0000 C   0  0  0  0  0  0  0  0  0  0  0  0
    6.1292   -1.7250    0.0000 C   0  0  0  0  0  0  0  0  0  0  0  0
    5.4167   -1.3167    0.0000 C   0  0  0  0  0  0  0  0  0  0  0  0
   13.2542    0.7625    0.0000 O   0  0  0  0  0  0  0  0  0  0  0  0
   -1.7083   -3.8042    0.0000 O   0  0  0  0  0  0  0  0  0  0  0  0
   -0.2750   -2.9792    0.0000 C   0  0  0  0  0  0  0  0  0  0  0  0
   11.8292   -0.0542    0.0000 C   0  0  0  0  0  0  0  0  0  0  0  0
   12.6750   -2.3000    0.0000 C   0  0  0  0  0  0  0  0  0  0  0  0
   13.8417   -2.3000    0.0000 C   0  0  0  0  0  0  0  0  0  0  0  0
   -2.2958   -0.7417    0.0000 C   0  0  0  0  0  0  0  0  0  0  0  0
   -1.1208   -0.7417    0.0000 C   0  0  0  0  0  0  0  0  0  0  0  0
   10.4125   -2.5375    0.0000 C   0  0  0  0  0  0  0  0  0  0  0  0
    1.1417   -0.5042    0.0000 C   0  0  0  0  0  0  0  0  0  0  0  0
    7.5625   -2.5417    0.0000 C   0  0  0  0  0  0  0  0  0  0  0  0
    3.9917   -0.4917    0.0000 C   0  0  0  0  0  0  0  0  0  0  0  0
  2  6  1  0
  3  2  2  0
  4  1  2  0
  5  1  1  0
  6 12  2  0
  7  2  1  0
  8  1  1  0
  9  4  1  0
 10  3  1  0
 11  5  2  0
 12 15  1  0
 13 19  1  0
 14 21  2  0
 15 20  2  0
 16 11  1  0
 17 22  1  0
 18 26  2  0
 19 16  2  0
 20 14  1  0
 21 18  1  0
 22 13  2  0
 23  7  1  0
 24  8  1  0
 25 17  2  0
 26 30  1  0
 27 24  1  0
 28 23  1  0
 29 25  1  0
 30 29  2  0
 31  9  2  0
 32 10  2  0
 33  3  1  0
 34  4  1  0
 35  8  1  0
 36  8  1  0
 37  7  1  0
 38  7  1  0
 39 16  1  0
 40 15  1  0
 41 17  1  0
 42 18  1  0
  9 27  1  0
 10 28  1  0
M  END
>  <ID>  (2296) 


>  <MOLENAME>  (2296) 
CANTHAXANTHIN (euglenanone)

>  <therap>  (2296) 
nan

>  <ref>  (2296) 
Arch Biochem Biophys 91: 271 (1960); Biochem J 101: 735 (1966)

>  <cas#>  (2296) 
514-78-3

>  <source>  (2296) 
Cantharellus cinnabarinus

>  <status>  (2296) 
undetermined activity

>  <tradename>  (2296) 
nan

>  <SMILES>  (2296) 
CC1=C(/C=C/C(C)=C/C=C/C(C)=C/C=C/C=C(C)/C=C/C=C(C)/C=C/C2=C(C)C(=O)CCC2(C)C)C(C)(C)CCC1=O

>  <standardized_failed>  (2296) 
False

$$$$

     RDKit          2D

  8  7  0  0  0  0  0  0  0  0999 V2000
    2.9292   -1.7792    0.0000 N   0  0  0  0  0  0  0  0  0  0  0  0
    5.0750   -1.3667    0.0000 C   0  0  0  0  0  0  0  0  0  0  0  0
    4.3625   -1.7792    0.0000 C   0  0  0  0  0  0  0  0  0  0  0  0
    2.2167   -1.3625    0.0000 O   0  0  0  0  0  0  0  0  0  0  0  0
    2.9292   -2.6000    0.0000 O   0  0  0  0  0  0  0  0  0  0  0  0
    3.6417   -1.3667    0.0000 C   0  0  0  0  0  0  0  0  0  0  0  0
    5.0750   -0.5417    0.0000 O   0  0  0  0  0  0  0  0  0  0  0  0
    5.7875   -1.7792    0.0000 O   0  0  0  0  0  0  0  0  0  0  0  0
  2  3  1  0
  3  6  1  0
  4  1  1  0
  5  1  2  0
  6  1  1  0
  7  2  2  0
  8  2  1  0
M  CHG  2   1   1   4  -1
M  END
>  <ID>  (2297) 


>  <MOLENAME>  (2297) 
BOVINOCIDIN

>  <therap>  (2297) 
antineoplastic

>  <ref>  (2297) 
Nature 164: 575 (1949)

>  <cas#>  (2297) 
504-88-1

>  <source>  (2297) 
Aspergillus, Streptomyces spp ; 3-nitropropionic acid 

>  <status>  (2297) 
experimental

>  <tradename>  (2297) 
nan

>  <SMILES>  (2297) 
O=C(O)CC[N+](=O)[O-]

>  <standardized_failed>  (2297) 
False

$$$$

     RDKit          2D

 34 37  0  0  0  0  0  0  0  0999 V2000
    2.4042   -0.5625    0.0000 C   0  0  0  0  0  0  0  0  0  0  0  0
    3.1167   -0.1500    0.0000 C   0  0  0  0  0  0  0  0  0  0  0  0
    0.9750   -0.5625    0.0000 C   0  0  0  0  0  0  0  0  0  0  0  0
    3.1167    0.6833    0.0000 C   0  0  0  0  0  0  0  0  0  0  0  0
    1.6875   -0.1500    0.0000 C   0  0  0  0  0  0  0  0  0  0  0  0
    2.4042   -1.3917    0.0000 C   0  0  0  0  0  0  0  0  0  0  0  0
    0.9750   -1.3917    0.0000 C   0  0  0  0  0  0  0  0  0  0  0  0
    3.9042    0.9333    0.0000 C   0  0  0  0  0  0  0  0  0  0  0  0
    1.6875   -1.8042    0.0000 C   0  0  0  0  0  0  0  0  0  0  0  0
    4.1542    1.7208    0.0000 C   0  0  0  0  0  0  0  0  0  0  0  0
    0.2625   -0.1500    0.0000 C   0  0  0  0  0  0  0  0  0  0  0  0
    0.2625   -1.8042    0.0000 C   0  0  0  0  0  0  0  0  0  0  0  0
    3.9042   -0.4042    0.0000 C   0  0  0  0  0  0  0  0  0  0  0  0
    2.4000    1.0958    0.0000 C   0  0  0  0  0  0  0  0  0  0  0  0
    1.6875    0.6833    0.0000 C   0  0  0  0  0  0  0  0  0  0  0  0
    4.3875    0.2708    0.0000 C   0  0  0  0  0  0  0  0  0  0  0  0
   -0.4583   -0.5625    0.0000 C   0  0  0  0  0  0  0  0  0  0  0  0
   -0.4583   -1.3917    0.0000 C   0  0  0  0  0  0  0  0  0  0  0  0
    1.6875   -2.6292    0.0000 O   0  0  0  0  0  0  0  0  0  0  0  0
    4.9417    1.4708    0.0000 C   0  0  0  0  0  0  0  0  0  0  0  0
    3.1125   -1.0000    0.0000 O   0  0  0  0  0  0  0  0  0  0  0  0
    6.3542   -0.0500    0.0000 C   0  0  0  0  0  0  0  0  0  0  0  0
    5.1167    0.6625    0.0000 C   0  0  0  0  0  0  0  0  0  0  0  0
    3.5500    2.3125    0.0000 O   0  0  0  0  0  0  0  0  0  0  0  0
    0.9750    0.2708    0.0000 C   0  0  0  0  0  0  0  0  0  0  0  0
    3.0792    1.5000    0.0000 C   0  0  0  0  0  0  0  0  0  0  0  0
    5.9417    0.6625    0.0000 C   0  0  0  0  0  0  0  0  0  0  0  0
   -1.1750   -0.1417    0.0000 O   0  0  0  0  0  0  0  0  0  0  0  0
   -1.1750   -1.8125    0.0000 O   0  0  0  0  0  0  0  0  0  0  0  0
    7.1792   -0.0500    0.0000 O   0  0  0  0  0  0  0  0  0  0  0  0
    4.4125    2.5083    0.0000 C   0  0  0  0  0  0  0  0  0  0  0  0
    5.5542    2.0208    0.0000 O   0  0  0  0  0  0  0  0  0  0  0  0
    5.9417   -0.7625    0.0000 C   0  0  0  0  0  0  0  0  0  0  0  0
    6.7667   -0.7625    0.0000 C   0  0  0  0  0  0  0  0  0  0  0  0
  2  1  1  0
  3  5  1  0
  4  2  1  0
  5  1  1  0
  6  1  2  0
  7  9  1  0
  8  4  1  0
  9  6  1  0
 10  8  1  0
 11  3  1  0
 12  7  1  0
 13  2  1  0
 14 15  1  0
 15  5  1  0
 16 13  1  0
 17 11  1  0
 18 12  1  0
 19  9  2  0
 20 10  1  0
  2 21  1  6
 22 27  1  0
 23 20  1  0
 10 24  1  0
  3 25  1  1
  4 26  1  1
 27 23  1  0
 17 28  1  1
 18 29  1  1
 30 22  1  0
 10 31  1  6
 20 32  1  6
 33 22  1  0
 34 22  1  0
  7  3  1  0
 14  4  1  0
  8 16  1  0
 18 17  1  0
M  END
>  <ID>  (2298) 


>  <MOLENAME>  (2298) 
CRUSTECDYSONE

>  <therap>  (2298) 
insect molting hormone

>  <ref>  (2298) 
Yakugaku Zasshi 87: 325 (1967); Arch Insect Biochem Phsiol 33: 231 (1996); J Neurosci 18: 8886 (1998)

>  <cas#>  (2298) 
5289-74-7

>  <source>  (2298) 
silkworm moth Bombyx mori & the plant Achyranthes fauriei

>  <status>  (2298) 
experimental

>  <tradename>  (2298) 
nan

>  <SMILES>  (2298) 
CC(C)(O)CC[C@@H](O)[C@](C)(O)C1CC[C@@]2(O)C3=CC(=O)C4C[C@@H](O)[C@@H](O)C[C@]4(C)C3CC[C@]12C

>  <standardized_failed>  (2298) 
False

$$$$

     RDKit          2D

 26 27  0  0  0  0  0  0  0  0999 V2000
    2.3542   -1.9625    0.0000 C   0  0  0  0  0  0  0  0  0  0  0  0
    8.7750   -2.3625    0.0000 C   0  0  0  0  0  0  0  0  0  0  0  0
    2.3542   -1.1375    0.0000 C   0  0  0  0  0  0  0  0  0  0  0  0
    8.7750   -3.1875    0.0000 C   0  0  0  0  0  0  0  0  0  0  0  0
    8.0625   -1.9500    0.0000 C   0  0  0  0  0  0  0  0  0  0  0  0
    3.0750   -2.3750    0.0000 C   0  0  0  0  0  0  0  0  0  0  0  0
    4.5000   -2.3667    0.0000 C   0  0  0  0  0  0  0  0  0  0  0  0
    6.6375   -1.9542    0.0000 C   0  0  0  0  0  0  0  0  0  0  0  0
    3.7875   -1.9625    0.0000 O   0  0  0  0  0  0  0  0  0  0  0  0
    7.3500   -2.3625    0.0000 O   0  0  0  0  0  0  0  0  0  0  0  0
    5.2125   -1.9542    0.0000 C   0  0  0  0  0  0  0  0  0  0  0  0
    5.9250   -2.3667    0.0000 C   0  0  0  0  0  0  0  0  0  0  0  0
    1.6417   -0.7292    0.0000 O   0  0  0  0  0  0  0  0  0  0  0  0
    8.0542   -3.6000    0.0000 O   0  0  0  0  0  0  0  0  0  0  0  0
    6.6292   -1.1292    0.0000 O   0  0  0  0  0  0  0  0  0  0  0  0
    4.5000   -3.1917    0.0000 O   0  0  0  0  0  0  0  0  0  0  0  0
    3.0667   -0.7250    0.0000 O   0  0  0  0  0  0  0  0  0  0  0  0
    9.4875   -3.6000    0.0000 O   0  0  0  0  0  0  0  0  0  0  0  0
    9.4875   -1.9500    0.0000 C   0  0  0  0  0  0  0  0  0  0  0  0
    1.6417   -2.3750    0.0000 C   0  0  0  0  0  0  0  0  0  0  0  0
    8.0542   -1.1292    0.0000 C   0  0  0  0  0  0  0  0  0  0  0  0
    3.0750   -3.2042    0.0000 C   0  0  0  0  0  0  0  0  0  0  0  0
    1.6417   -3.2042    0.0000 C   0  0  0  0  0  0  0  0  0  0  0  0
    9.4792   -1.1250    0.0000 C   0  0  0  0  0  0  0  0  0  0  0  0
    2.3542   -3.6167    0.0000 C   0  0  0  0  0  0  0  0  0  0  0  0
    8.7667   -0.7167    0.0000 C   0  0  0  0  0  0  0  0  0  0  0  0
  2  5  2  0
  3  1  1  0
  4  2  1  0
  5 10  1  0
  6  1  2  0
  7  9  1  0
  8 12  1  0
  9  6  1  0
 10  8  1  0
 11  7  1  0
 12 11  2  0
 13  3  2  0
 14  4  2  0
 15  8  2  0
 16  7  2  0
 17  3  1  0
 18  4  1  0
 19  2  1  0
 20  1  1  0
 21  5  1  0
 22  6  1  0
 23 20  2  0
 24 26  1  0
 25 23  1  0
 26 21  2  0
 22 25  2  0
 24 19  2  0
M  END
>  <ID>  (2299) 


>  <MOLENAME>  (2299) 
BISSALICYL FUMARATE

>  <therap>  (2299) 
crosslinking agent (hemoglobin)

>  <ref>  (2299) 
J Biol Chem 255:2816 (1980)

>  <cas#>  (2299) 
nan

>  <source>  (2299) 
synthetic

>  <status>  (2299) 
experimental

>  <tradename>  (2299) 
nan

>  <SMILES>  (2299) 
O=C(/C=C/C(=O)Oc1c(C(=O)O)cccc1)Oc1c(C(=O)O)cccc1

>  <standardized_failed>  (2299) 
False

$$$$

     RDKit          2D

  8  5  0  0  0  0  0  0  0  0999 V2000
    4.8000   -1.7167    0.0000 Cl  0  0  0  0  0  0  0  0  0  0  0  0
   -0.6958   -1.8417    0.0000 Cl  0  0  0  0  0  0  0  0  0  0  0  0
    0.4542   -1.4042    0.0000 N   0  0  0  0  0  0  0  0  0  0  0  0
    4.0167   -0.9792    0.0000 N   0  0  0  0  0  0  0  0  0  0  0  0
    3.3042   -1.3917    0.0000 C   0  0  0  0  0  0  0  0  0  0  0  0
    1.1667   -0.9917    0.0000 C   0  0  0  0  0  0  0  0  0  0  0  0
    1.8792   -1.4000    0.0000 C   0  0  0  0  0  0  0  0  0  0  0  0
    2.5917   -0.9875    0.0000 C   0  0  0  0  0  0  0  0  0  0  0  0
  4  5  1  0
  5  8  1  0
  6  3  1  0
  7  6  1  0
  8  7  1  0
M  END
>  <ID>  (2300) 


>  <MOLENAME>  (2300) 
PUTRESCINE DIHYDROCHLORIDE

>  <therap>  (2300) 
ornithine decarboxylase inhibitor, cell growth factor

>  <ref>  (2300) 
nan

>  <cas#>  (2300) 
nan

>  <source>  (2300) 
catabolism of ornithine

>  <status>  (2300) 
experimental

>  <tradename>  (2300) 
nan

>  <SMILES>  (2300) 
NCCCCN

>  <standardized_failed>  (2300) 
False

$$$$

     RDKit          2D

 31 34  0  0  0  0  0  0  0  0999 V2000
    5.9167   -4.6792    0.0000 C   0  0  0  0  0  0  0  0  0  0  0  0
    5.1917   -5.1000    0.0000 C   0  0  0  0  0  0  0  0  0  0  0  0
    4.4792   -4.6792    0.0000 C   0  0  0  0  0  0  0  0  0  0  0  0
    3.7667   -5.1000    0.0000 C   0  0  0  0  0  0  0  0  0  0  0  0
    5.9167   -3.8417    0.0000 C   0  0  0  0  0  0  0  0  0  0  0  0
    3.7667   -5.9292    0.0000 C   0  0  0  0  0  0  0  0  0  0  0  0
    3.0500   -6.3417    0.0000 C   0  0  0  0  0  0  0  0  0  0  0  0
    6.7042   -3.5917    0.0000 C   0  0  0  0  0  0  0  0  0  0  0  0
    6.7042   -4.9417    0.0000 C   0  0  0  0  0  0  0  0  0  0  0  0
    5.1917   -3.4292    0.0000 C   0  0  0  0  0  0  0  0  0  0  0  0
    4.4792   -3.8417    0.0000 C   0  0  0  0  0  0  0  0  0  0  0  0
    5.1917   -5.9292    0.0000 C   0  0  0  0  0  0  0  0  0  0  0  0
    3.0500   -4.6792    0.0000 C   0  0  0  0  0  0  0  0  0  0  0  0
    4.4792   -6.3417    0.0000 C   0  0  0  0  0  0  0  0  0  0  0  0
    7.1917   -4.2542    0.0000 C   0  0  0  0  0  0  0  0  0  0  0  0
    2.3167   -5.9292    0.0000 C   0  0  0  0  0  0  0  0  0  0  0  0
    2.3167   -5.1000    0.0000 C   0  0  0  0  0  0  0  0  0  0  0  0
    9.0917   -0.8667    0.0000 C   0  0  0  0  0  0  0  0  0  0  0  0
    8.8375   -1.6625    0.0000 C   0  0  0  0  0  0  0  0  0  0  0  0
    6.9625   -2.8042    0.0000 C   0  0  0  0  0  0  0  0  0  0  0  0
    5.9125   -5.5417    0.0000 C   0  0  0  0  0  0  0  0  0  0  0  0
    3.7500   -4.3125    0.0000 C   0  0  0  0  0  0  0  0  0  0  0  0
    5.9167   -3.0167    0.0000 C   0  0  0  0  0  0  0  0  0  0  0  0
    2.4667   -6.9250    0.0000 C   0  0  0  0  0  0  0  0  0  0  0  0
    3.5542   -6.8875    0.0000 C   0  0  0  0  0  0  0  0  0  0  0  0
    1.6042   -6.3542    0.0000 O   0  0  0  0  0  0  0  0  0  0  0  0
    8.0250   -1.8375    0.0000 C   0  0  0  0  0  0  0  0  0  0  0  0
    7.7667   -2.6292    0.0000 C   0  0  0  0  0  0  0  0  0  0  0  0
    9.8917   -0.6917    0.0000 C   0  0  0  0  0  0  0  0  0  0  0  0
    8.5292   -0.2542    0.0000 C   0  0  0  0  0  0  0  0  0  0  0  0
    6.4042   -2.1875    0.0000 C   0  0  0  0  0  0  0  0  0  0  0  0
  2  1  1  0
  3  2  2  0
  4  3  1  0
  5  1  1  0
  6 14  1  0
  7  6  1  0
  8  5  1  0
  9  1  1  0
 10  5  1  0
 11 10  1  0
 12  2  1  0
 13  4  1  0
 14 12  1  0
 15  9  1  0
 16  7  1  0
 17 13  1  0
 18 19  2  0
 19 27  1  0
  8 20  1  6
  1 21  1  1
 22  4  1  0
  5 23  1  6
 24  7  1  0
 25  7  1  0
 16 26  1  1
 27 28  1  0
 28 20  1  0
 29 18  1  0
 30 18  1  0
 31 20  1  0
  8 15  1  0
  3 11  1  0
  6  4  1  0
 16 17  1  0
M  END
>  <ID>  (2301) 


>  <MOLENAME>  (2301) 
EUPHOL

>  <therap>  (2301) 
nan

>  <ref>  (2301) 
J Chem Soc 1944:249; 1958:179

>  <cas#>  (2301) 
514-47-6

>  <source>  (2301) 
Euphorbia spp.

>  <status>  (2301) 
undetermined activity

>  <tradename>  (2301) 
nan

>  <SMILES>  (2301) 
CC(C)=CCCC(C)[C@@H]1CC[C@]2(C)C3=C(CC[C@@]12C)C1(C)CC[C@H](O)C(C)(C)C1CC3

>  <standardized_failed>  (2301) 
False

$$$$

     RDKit          2D

 23 25  0  0  0  0  0  0  0  0999 V2000
    7.3792   -4.0000    0.0000 C   0  0  0  0  0  0  0  0  0  0  0  0
    7.1917   -3.1917    0.0000 C   0  0  0  0  0  0  0  0  0  0  0  0
    5.7917   -2.4667    0.0000 C   0  0  0  0  0  0  0  0  0  0  0  0
    6.6000   -2.6292    0.0000 C   0  0  0  0  0  0  0  0  0  0  0  0
    5.0167   -2.7667    0.0000 O   0  0  0  0  0  0  0  0  0  0  0  0
    7.1042   -4.7750    0.0000 C   0  0  0  0  0  0  0  0  0  0  0  0
    4.5375   -3.4417    0.0000 C   0  0  0  0  0  0  0  0  0  0  0  0
    4.9000   -4.9750    0.0000 C   0  0  0  0  0  0  0  0  0  0  0  0
    3.6917   -4.4750    0.0000 N   0  0  0  0  0  0  0  0  0  0  0  0
    4.4917   -4.2542    0.0000 C   0  0  0  0  0  0  0  0  0  0  0  0
    6.4542   -5.2792    0.0000 O   0  0  0  0  0  0  0  0  0  0  0  0
    4.3417   -5.5875    0.0000 C   0  0  0  0  0  0  0  0  0  0  0  0
    3.7667   -3.1417    0.0000 C   0  0  0  0  0  0  0  0  0  0  0  0
    5.6292   -5.3542    0.0000 C   0  0  0  0  0  0  0  0  0  0  0  0
    3.6500   -5.2917    0.0000 C   0  0  0  0  0  0  0  0  0  0  0  0
    3.2500   -3.7792    0.0000 C   0  0  0  0  0  0  0  0  0  0  0  0
    5.7292   -1.6417    0.0000 O   0  0  0  0  0  0  0  0  0  0  0  0
    7.7917   -5.2542    0.0000 O   0  0  0  0  0  0  0  0  0  0  0  0
    8.2250   -3.9875    0.0000 O   0  0  0  0  0  0  0  0  0  0  0  0
    7.7917   -2.5167    0.0000 O   0  0  0  0  0  0  0  0  0  0  0  0
    7.9417   -4.6000    0.0000 C   0  0  0  0  0  0  0  0  0  0  0  0
    8.0042   -3.2042    0.0000 C   0  0  0  0  0  0  0  0  0  0  0  0
    6.9917   -1.8792    0.0000 C   0  0  0  0  0  0  0  0  0  0  0  0
  2  1  1  0
  3  4  1  0
  4  2  1  0
  5  3  1  0
  6  1  1  0
  7  5  1  0
  8 14  1  0
 10  9  1  1
 10  8  1  0
 11  6  1  0
 12  8  2  0
  7 13  1  1
 14 11  1  0
 15 12  1  0
 16  9  1  0
 17  3  2  0
 18  6  2  0
  1 19  1  0
  2 20  1  0
  1 21  1  6
  2 22  1  6
  4 23  1  6
 10  7  1  0
  9 15  1  0
 13 16  1  0
M  END
>  <ID>  (2302) 


>  <MOLENAME>  (2302) 
MONOCROTALINE

>  <therap>  (2302) 
antineoplastic, insect sterilant

>  <ref>  (2302) 
J Am Chem Soc 72: 158 (1950)

>  <cas#>  (2302) 
315-22-0

>  <source>  (2302) 
Crotalaria spp

>  <status>  (2302) 
experimental

>  <tradename>  (2302) 
nan

>  <SMILES>  (2302) 
C[C@H]1C(=O)O[C@@H]2CCN3CC=C(COC(=O)[C@](C)(O)[C@]1(C)O)[C@H]23

>  <standardized_failed>  (2302) 
False

$$$$

     RDKit          2D

 13 12  0  0  0  0  0  0  0  0999 V2000
    4.9167   -1.0875    0.0000 C   0  0  0  0  0  0  0  0  0  0  0  0
    4.1292   -1.3667    0.0000 C   0  0  0  0  0  0  0  0  0  0  0  0
    4.9250   -0.3375    0.0000 O   0  0  0  0  0  0  0  0  0  0  0  0
    3.4917   -0.8208    0.0000 C   0  0  0  0  0  0  0  0  0  0  0  0
    4.1292   -2.1917    0.0000 N   0  0  0  0  0  0  0  0  0  0  0  0
    5.6292   -1.5000    0.0000 O   0  0  0  0  0  0  0  0  0  0  0  0
    2.7750   -1.2417    0.0000 C   0  0  0  0  0  0  0  0  0  0  0  0
    6.8042   -1.1542    0.0000 Cl  0  0  0  0  0  0  0  0  0  0  0  0
    2.7750   -2.0750    0.0000 C   0  0  0  0  0  0  0  0  0  0  0  0
    2.0583   -0.8208    0.0000 C   0  0  0  0  0  0  0  0  0  0  0  0
    1.3333   -1.2417    0.0000 C   0  0  0  0  0  0  0  0  0  0  0  0
    2.0583   -2.4875    0.0000 C   0  0  0  0  0  0  0  0  0  0  0  0
    1.3333   -2.0750    0.0000 C   0  0  0  0  0  0  0  0  0  0  0  0
  2  1  1  0
  3  1  2  0
  2  4  1  0
  2  5  1  1
  6  1  1  0
  7  4  1  0
  9  7  2  0
 10  7  1  0
 11 10  2  0
 12  9  1  0
 13 11  1  0
 13 12  2  0
M  END
>  <ID>  (2303) 


>  <MOLENAME>  (2303) 
PHENYLALANIINE (L) HYDROCHLORIDE

>  <therap>  (2303) 
amino acid

>  <ref>  (2303) 
J. Controlled Release (1991), 16(1-2), 77-88; Thermochim. Acta (1981), 49(1), 101-10

>  <cas#>  (2303) 
63-91-2(base)

>  <source>  (2303) 
widespread in nature

>  <status>  (2303) 
USP, INN, JAN

>  <tradename>  (2303) 
nan

>  <SMILES>  (2303) 
N[C@@H](Cc1ccccc1)C(=O)O

>  <standardized_failed>  (2303) 
False

$$$$

     RDKit          2D

 13 14  0  0  0  0  0  0  0  0999 V2000
    3.3542   -3.7292    0.0000 C   0  0  0  0  0  0  0  0  0  0  0  0
    3.3542   -2.9042    0.0000 C   0  0  0  0  0  0  0  0  0  0  0  0
    1.9292   -2.9042    0.0000 N   0  0  0  0  0  0  0  0  0  0  0  0
    2.6417   -2.4917    0.0000 C   0  0  0  0  0  0  0  0  0  0  0  0
    2.6417   -4.1417    0.0000 N   0  0  0  0  0  0  0  0  0  0  0  0
    1.9292   -3.7292    0.0000 C   0  0  0  0  0  0  0  0  0  0  0  0
    4.1417   -3.9875    0.0000 N   0  0  0  0  0  0  0  0  0  0  0  0
    4.1417   -2.6417    0.0000 N   0  0  0  0  0  0  0  0  0  0  0  0
    4.6292   -3.3167    0.0000 C   0  0  0  0  0  0  0  0  0  0  0  0
    2.6375   -1.6667    0.0000 O   0  0  0  0  0  0  0  0  0  0  0  0
    1.2125   -4.1417    0.0000 O   0  0  0  0  0  0  0  0  0  0  0  0
    1.2167   -2.4917    0.0000 C   0  0  0  0  0  0  0  0  0  0  0  0
    4.4000   -1.8625    0.0000 C   0  0  0  0  0  0  0  0  0  0  0  0
  2  1  2  0
  3  6  1  0
  4  2  1  0
  5  1  1  0
  6  5  1  0
  7  1  1  0
  8  2  1  0
  9  7  2  0
 10  4  2  0
 11  6  2  0
 12  3  1  0
 13  8  1  0
  9  8  1  0
  4  3  1  0
M  END
>  <ID>  (2304) 


>  <MOLENAME>  (2304) 
PARAXANTHINE

>  <therap>  (2304) 
adenosine receptor agonist, CNS stimulant

>  <ref>  (2304) 
Eur J Pharmacol 179: 295 (1990)

>  <cas#>  (2304) 
611-59-6

>  <source>  (2304) 
synthetic

>  <status>  (2304) 
experimental

>  <tradename>  (2304) 
nan

>  <SMILES>  (2304) 
Cn1c(=O)[nH]c2c(c1=O)n(C)cn2

>  <standardized_failed>  (2304) 
False

$$$$

     RDKit          2D

 46 51  0  0  0  0  0  0  0  0999 V2000
    5.1125   -1.0875    0.0000 C   0  0  0  0  0  0  0  0  0  0  0  0
    5.7292   -0.7167    0.0000 C   0  0  0  0  0  0  0  0  0  0  0  0
    3.8167   -1.8375    0.0000 C   0  0  0  0  0  0  0  0  0  0  0  0
    5.1125   -1.8375    0.0000 C   0  0  0  0  0  0  0  0  0  0  0  0
    3.8167   -1.0875    0.0000 C   0  0  0  0  0  0  0  0  0  0  0  0
    4.4417   -2.1875    0.0000 C   0  0  0  0  0  0  0  0  0  0  0  0
    5.8000   -1.4875    0.0000 C   0  0  0  0  0  0  0  0  0  0  0  0
    2.5292   -1.0875    0.0000 C   0  0  0  0  0  0  0  0  0  0  0  0
    4.4417   -0.7167    0.0000 O   0  0  0  0  0  0  0  0  0  0  0  0
    2.5292   -1.8375    0.0000 C   0  0  0  0  0  0  0  0  0  0  0  0
    5.3292   -0.2375    0.0000 O   0  0  0  0  0  0  0  0  0  0  0  0
    3.1667   -2.1875    0.0000 C   0  0  0  0  0  0  0  0  0  0  0  0
    3.1667   -0.7167    0.0000 C   0  0  0  0  0  0  0  0  0  0  0  0
    4.8417   -0.2375    0.0000 C   0  0  0  0  0  0  0  0  0  0  0  0
    6.3792   -1.8375    0.0000 C   0  0  0  0  0  0  0  0  0  0  0  0
    6.3792   -1.0875    0.0000 C   0  0  0  0  0  0  0  0  0  0  0  0
    5.7292   -2.1875    0.0000 C   0  0  0  0  0  0  0  0  0  0  0  0
    6.3792   -2.5375    0.0000 C   0  0  0  0  0  0  0  0  0  0  0  0
    1.9000   -2.1875    0.0000 C   0  0  0  0  0  0  0  0  0  0  0  0
    1.9000   -0.7167    0.0000 O   0  0  0  0  0  0  0  0  0  0  0  0
    6.2917   -0.1542    0.0000 C   0  0  0  0  0  0  0  0  0  0  0  0
    6.0167    0.4708    0.0000 C   0  0  0  0  0  0  0  0  0  0  0  0
    3.1667    0.0125    0.0000 C   0  0  0  0  0  0  0  0  0  0  0  0
    7.0125    1.4833    0.0000 C   0  0  0  0  0  0  0  0  0  0  0  0
    6.3625    1.1458    0.0000 C   0  0  0  0  0  0  0  0  0  0  0  0
    1.2625   -1.8375    0.0000 C   0  0  0  0  0  0  0  0  0  0  0  0
    1.2625   -1.0875    0.0000 C   0  0  0  0  0  0  0  0  0  0  0  0
    2.5292    0.3833    0.0000 C   0  0  0  0  0  0  0  0  0  0  0  0
    4.4417   -2.9375    0.0000 O   0  0  0  0  0  0  0  0  0  0  0  0
    7.0125    2.2458    0.0000 O   0  0  0  0  0  0  0  0  0  0  0  0
    2.5292    1.1458    0.0000 C   0  0  0  0  0  0  0  0  0  0  0  0
   -1.3083   -1.0750    0.0000 C   0  0  0  0  0  0  0  0  0  0  0  0
   -0.6583   -0.7042    0.0000 C   0  0  0  0  0  0  0  0  0  0  0  0
    3.1667   -2.9375    0.0000 O   0  0  0  0  0  0  0  0  0  0  0  0
    7.0167   -0.7167    0.0000 O   0  0  0  0  0  0  0  0  0  0  0  0
    7.6500    1.1458    0.0000 O   0  0  0  0  0  0  0  0  0  0  0  0
    4.1500   -0.2375    0.0000 C   0  0  0  0  0  0  0  0  0  0  0  0
    4.4417    0.2833    0.0000 C   0  0  0  0  0  0  0  0  0  0  0  0
   -0.0333   -1.0875    0.0000 C   0  0  0  0  0  0  0  0  0  0  0  0
    0.6125   -0.7167    0.0000 C   0  0  0  0  0  0  0  0  0  0  0  0
    5.7292    1.6250    0.0000 C   0  0  0  0  0  0  0  0  0  0  0  0
    1.2625   -0.2042    0.0000 C   0  0  0  0  0  0  0  0  0  0  0  0
    1.9000    1.4833    0.0000 C   0  0  0  0  0  0  0  0  0  0  0  0
    3.1667    1.4833    0.0000 C   0  0  0  0  0  0  0  0  0  0  0  0
   -1.2833   -1.7375    0.0000 C   0  0  0  0  0  0  0  0  0  0  0  0
   -1.9500   -0.7042    0.0000 C   0  0  0  0  0  0  0  0  0  0  0  0
  2  1  1  0
  3  5  2  0
  4  1  1  0
  5  9  1  0
  6  4  1  0
  7  1  1  0
  8 13  2  0
  9  1  1  0
 10  8  1  0
 11  2  1  0
 12  3  1  0
 13  5  1  0
 14  7  1  0
 15 18  1  0
 16  2  1  0
 17  4  1  0
 18  7  1  0
 19 10  1  0
 20  8  1  0
 21  2  1  0
 22 21  1  0
 23 13  1  0
 24 25  1  0
 25 22  2  0
 26 27  1  0
 27 20  1  0
 28 23  1  0
 29  6  2  0
 30 24  2  0
 31 28  2  0
 32 33  2  0
 33 39  1  0
 34 12  1  0
 35 16  1  0
 36 24  1  0
 37 14  1  0
 38 14  1  0
 39 40  1  0
 40 27  1  0
 41 25  1  0
 42 27  1  0
 43 31  1  0
 44 31  1  0
 45 32  1  0
 46 32  1  0
 11 14  1  0
 17 15  1  0
  3  6  1  0
 15 16  1  0
 10 12  2  0
 19 26  2  0
M  END
>  <ID>  (2305) 


>  <MOLENAME>  (2305) 
TETRAHYDROGAMBOGIC ACID

>  <therap>  (2305) 
nan

>  <ref>  (2305) 
Tetrahedron 21: 1453 (1965)

>  <cas#>  (2305) 
nan

>  <source>  (2305) 
derivative

>  <status>  (2305) 
undetermined activity

>  <tradename>  (2305) 
nan

>  <SMILES>  (2305) 
CC(C)=CCCC1(C)C=Cc2c(O)c3c(OC45C(CC6CC4C(C)(C)OC5(C/C=C(/C)C(=O)O)C6O)C3=O)c(CC=C(C)C)c2O1

>  <standardized_failed>  (2305) 
False

$$$$

     RDKit          2D

 12 13  0  0  0  0  0  0  0  0999 V2000
    2.5667    0.5333    0.0000 C   0  0  0  0  0  0  0  0  0  0  0  0
    1.8542    0.9458    0.0000 C   0  0  0  0  0  0  0  0  0  0  0  0
    3.1792    1.0833    0.0000 O   0  0  0  0  0  0  0  0  0  0  0  0
    2.0292    1.7500    0.0000 O   0  0  0  0  0  0  0  0  0  0  0  0
    2.8500    1.8333    0.0000 C   0  0  0  0  0  0  0  0  0  0  0  0
    2.5750   -0.2917    0.0000 C   0  0  0  0  0  0  0  0  0  0  0  0
    1.1417    0.5333    0.0000 C   0  0  0  0  0  0  0  0  0  0  0  0
    1.1417   -1.9417    0.0000 C   0  0  0  0  0  0  0  0  0  0  0  0
    1.1417   -2.7667    0.0000 C   0  0  0  0  0  0  0  0  0  0  0  0
    1.8542   -0.7042    0.0000 C   0  0  0  0  0  0  0  0  0  0  0  0
    1.1417   -0.2917    0.0000 C   0  0  0  0  0  0  0  0  0  0  0  0
    1.8542   -1.5292    0.0000 C   0  0  0  0  0  0  0  0  0  0  0  0
  2  1  2  0
  3  1  1  0
  4  2  1  0
  5  3  1  0
  6  1  1  0
  7  2  1  0
  8 12  1  0
  9  8  2  0
 10  6  2  0
 11 10  1  0
 12 10  1  0
  4  5  1  0
 11  7  2  0
M  END
>  <ID>  (2306) 


>  <MOLENAME>  (2306) 
SAFROLE

>  <therap>  (2306) 
anesthetic (topical) and antiseptic, pediculicide

>  <ref>  (2306) 
J Org Chem 13: 448 (1948)

>  <cas#>  (2306) 
94-59-7

>  <source>  (2306) 
sassafras officinale

>  <status>  (2306) 
experimental

>  <tradename>  (2306) 
nan

>  <SMILES>  (2306) 
C=CCc1cc2c(cc1)OCO2

>  <standardized_failed>  (2306) 
False

$$$$

     RDKit          2D

 16 18  0  0  0  0  0  0  0  0999 V2000
    3.5875   -1.7417    0.0000 N   0  0  0  0  0  0  0  0  0  0  0  0
    2.9000   -2.1500    0.0000 C   0  0  0  0  0  0  0  0  0  0  0  0
    4.2750   -2.1500    0.0000 C   0  0  0  0  0  0  0  0  0  0  0  0
    2.9000   -2.9417    0.0000 C   0  0  0  0  0  0  0  0  0  0  0  0
    4.2667   -2.9500    0.0000 C   0  0  0  0  0  0  0  0  0  0  0  0
    2.2125   -1.7500    0.0000 C   0  0  0  0  0  0  0  0  0  0  0  0
    2.2125   -3.3417    0.0000 C   0  0  0  0  0  0  0  0  0  0  0  0
    4.9625   -1.7500    0.0000 C   0  0  0  0  0  0  0  0  0  0  0  0
    5.6542   -2.1542    0.0000 N   0  0  0  0  0  0  0  0  0  0  0  0
    1.5250   -2.1500    0.0000 C   0  0  0  0  0  0  0  0  0  0  0  0
    1.5250   -2.9417    0.0000 C   0  0  0  0  0  0  0  0  0  0  0  0
    5.6542   -2.9500    0.0000 C   0  0  0  0  0  0  0  0  0  0  0  0
    4.9542   -3.3500    0.0000 C   0  0  0  0  0  0  0  0  0  0  0  0
    0.8292   -1.7542    0.0000 O   0  0  0  0  0  0  0  0  0  0  0  0
    4.9625   -0.9542    0.0000 C   0  0  0  0  0  0  0  0  0  0  0  0
    0.8292   -0.9542    0.0000 C   0  0  0  0  0  0  0  0  0  0  0  0
  2  1  1  0
  3  1  1  0
  4  2  2  0
  5  3  2  0
  6  2  1  0
  7  4  1  0
  8  3  1  0
  9  8  2  0
 10  6  2  0
 11 10  1  0
 12  9  1  0
 13  5  1  0
 14 10  1  0
 15  8  1  0
 16 14  1  0
  5  4  1  0
 12 13  2  0
 11  7  2  0
M  END
>  <ID>  (2307) 


>  <MOLENAME>  (2307) 
HARMINE

>  <therap>  (2307) 
antiparkinsonian, CNS stimulant

>  <ref>  (2307) 
J Pharmacol Exp Ther  79:127 (1943); Phytochemistry 7: 503 (1968)

>  <cas#>  (2307) 
442-51-3

>  <source>  (2307) 
Peganium harmala seeds

>  <status>  (2307) 
experimental

>  <tradename>  (2307) 
nan

>  <SMILES>  (2307) 
COc1cc2c(cc1)c1c([nH]2)c(C)ncc1

>  <standardized_failed>  (2307) 
False

$$$$

     RDKit          2D

 26 27  0  0  0  0  0  0  0  0999 V2000
    7.4417   -1.7000    0.0000 N   0  0  0  0  0  0  0  0  0  0  0  0
    6.8000   -1.3042    0.0000 C   0  0  0  0  0  0  0  0  0  0  0  0
    6.1167   -2.4250    0.0000 C   0  0  0  0  0  0  0  0  0  0  0  0
    6.1375   -1.6667    0.0000 C   0  0  0  0  0  0  0  0  0  0  0  0
    5.4542   -2.7875    0.0000 C   0  0  0  0  0  0  0  0  0  0  0  0
    6.8125   -0.5500    0.0000 C   0  0  0  0  0  0  0  0  0  0  0  0
    8.1000   -1.3375    0.0000 C   0  0  0  0  0  0  0  0  0  0  0  0
    7.4750   -0.1875    0.0000 C   0  0  0  0  0  0  0  0  0  0  0  0
    8.1167   -0.5875    0.0000 C   0  0  0  0  0  0  0  0  0  0  0  0
    7.7417   -1.2167    0.0000 C   0  0  0  0  0  0  0  0  0  0  0  0
    5.4417   -3.5375    0.0000 C   0  0  0  0  0  0  0  0  0  0  0  0
    6.0792   -3.9250    0.0000 N   0  0  0  0  0  0  0  0  0  0  0  0
    4.8167   -2.4000    0.0000 C   0  0  0  0  0  0  0  0  0  0  0  0
    7.0917   -0.8375    0.0000 C   0  0  0  0  0  0  0  0  0  0  0  0
    4.7792   -3.9000    0.0000 C   0  0  0  0  0  0  0  0  0  0  0  0
    5.4917   -1.2750    0.0000 O   0  0  0  0  0  0  0  0  0  0  0  0
    4.1542   -2.7625    0.0000 C   0  0  0  0  0  0  0  0  0  0  0  0
    6.7417   -3.5625    0.0000 C   0  0  0  0  0  0  0  0  0  0  0  0
    4.1417   -3.5125    0.0000 C   0  0  0  0  0  0  0  0  0  0  0  0
    6.7542   -2.8125    0.0000 C   0  0  0  0  0  0  0  0  0  0  0  0
    8.5250   -2.7167    0.0000 Br  0  0  0  0  0  0  0  0  0  0  0  0
    3.5167   -2.3750    0.0000 O   0  0  0  0  0  0  0  0  0  0  0  0
   11.0208   -2.7792    0.0000 O   0  0  0  0  0  0  0  0  0  0  0  0
    8.7875   -0.2208    0.0000 C   0  0  0  0  0  0  0  0  0  0  0  0
    2.8167   -2.3750    0.0000 C   0  0  0  0  0  0  0  0  0  0  0  0
    9.4292   -0.6167    0.0000 C   0  0  0  0  0  0  0  0  0  0  0  0
  2  1  1  0
  3  4  1  0
  4  2  1  0
  5  3  1  0
  2  6  1  1
  7  1  1  0
  8 14  1  0
  9  7  1  0
 10  1  1  0
 11  5  2  0
 12 18  2  0
 13  5  1  0
 14 10  1  0
 15 11  1  0
  4 16  1  1
 17 13  2  0
 18 20  1  0
 19 17  1  0
 20  3  2  0
 22 17  1  0
  9 24  1  1
 25 22  1  0
 26 24  1  0
  9  8  1  0
  8  6  1  0
 11 12  1  0
 19 15  2  0
M  END
>  <ID>  (2308) 


>  <MOLENAME>  (2308) 
HYDROQUININE HYDROBROMIDE HYDRATE

>  <therap>  (2308) 
depigmentor

>  <ref>  (2308) 
nan

>  <cas#>  (2308) 
207386-86-5

>  <source>  (2308) 
semisynthetic; derivatice of quinine

>  <status>  (2308) 
experimental

>  <tradename>  (2308) 
nan

>  <SMILES>  (2308) 
CC[C@H]1CN2CCC1C[C@@H]2[C@H](O)c1ccnc2c1cc(OC)cc2

>  <standardized_failed>  (2308) 
False

$$$$

     RDKit          2D

 18 20  0  0  0  0  0  0  0  0999 V2000
    7.0417   -4.9000    0.0000 N   0  0  0  0  0  0  0  0  0  0  0  0
    6.2542   -4.6417    0.0000 C   0  0  0  0  0  0  0  0  0  0  0  0
    7.0375   -5.8250    0.0000 C   0  0  0  0  0  0  0  0  0  0  0  0
    6.2542   -3.8167    0.0000 C   0  0  0  0  0  0  0  0  0  0  0  0
    7.0417   -3.5625    0.0000 N   0  0  0  0  0  0  0  0  0  0  0  0
    7.5167   -4.2250    0.0000 C   0  0  0  0  0  0  0  0  0  0  0  0
    6.2125   -5.9000    0.0000 O   0  0  0  0  0  0  0  0  0  0  0  0
    7.3667   -6.5875    0.0000 C   0  0  0  0  0  0  0  0  0  0  0  0
    5.5417   -3.4042    0.0000 C   0  0  0  0  0  0  0  0  0  0  0  0
    5.5417   -5.0542    0.0000 N   0  0  0  0  0  0  0  0  0  0  0  0
    6.0375   -6.7042    0.0000 C   0  0  0  0  0  0  0  0  0  0  0  0
    4.8292   -3.8167    0.0000 N   0  0  0  0  0  0  0  0  0  0  0  0
    6.7417   -7.1292    0.0000 C   0  0  0  0  0  0  0  0  0  0  0  0
    4.8292   -4.6417    0.0000 C   0  0  0  0  0  0  0  0  0  0  0  0
    5.5417   -2.5792    0.0000 N   0  0  0  0  0  0  0  0  0  0  0  0
    6.8125   -7.9542    0.0000 O   0  0  0  0  0  0  0  0  0  0  0  0
    5.2667   -7.0375    0.0000 C   0  0  0  0  0  0  0  0  0  0  0  0
    5.1667   -7.8625    0.0000 O   0  0  0  0  0  0  0  0  0  0  0  0
  2  1  1  0
  3  1  1  0
  4  2  2  0
  5  6  2  0
  6  1  1  0
  7  3  1  0
  8  3  1  0
  9  4  1  0
 10  2  1  0
 11  7  1  0
 12 14  1  0
 13  8  1  0
 14 10  2  0
 15  9  1  0
 13 16  1  6
 11 17  1  1
 18 17  1  0
  4  5  1  0
 13 11  1  0
  9 12  2  0
M  END
>  <ID>  (2309) 


>  <MOLENAME>  (2309) 
DEOXYADENOSINE

>  <therap>  (2309) 
nan

>  <ref>  (2309) 
nan

>  <cas#>  (2309) 
16373-93-6

>  <source>  (2309) 
synthetic

>  <status>  (2309) 
undetermined activity

>  <tradename>  (2309) 
nan

>  <SMILES>  (2309) 
Nc1ncnc2c1ncn2C1C[C@H](O)[C@@H](CO)O1

>  <standardized_failed>  (2309) 
False

$$$$

     RDKit          2D

 24 26  0  0  0  0  0  0  0  0999 V2000
    0.2292   -0.3875    0.0000 C   0  0  0  0  0  0  0  0  0  0  0  0
    0.9500   -0.8000    0.0000 C   0  0  0  0  0  0  0  0  0  0  0  0
    0.2292    0.4375    0.0000 C   0  0  0  0  0  0  0  0  0  0  0  0
    1.6625   -0.3792    0.0000 C   0  0  0  0  0  0  0  0  0  0  0  0
    0.9417    0.8583    0.0000 O   0  0  0  0  0  0  0  0  0  0  0  0
    1.6542    0.4458    0.0000 C   0  0  0  0  0  0  0  0  0  0  0  0
   -0.4833   -0.8042    0.0000 C   0  0  0  0  0  0  0  0  0  0  0  0
   -0.4833    0.8500    0.0000 C   0  0  0  0  0  0  0  0  0  0  0  0
   -1.1958    0.4375    0.0000 C   0  0  0  0  0  0  0  0  0  0  0  0
   -1.1958   -0.3917    0.0000 C   0  0  0  0  0  0  0  0  0  0  0  0
    0.9500   -1.6250    0.0000 O   0  0  0  0  0  0  0  0  0  0  0  0
    2.3750   -0.7875    0.0000 C   0  0  0  0  0  0  0  0  0  0  0  0
   -0.4875    1.6750    0.0000 O   0  0  0  0  0  0  0  0  0  0  0  0
   -0.4833   -1.6292    0.0000 O   0  0  0  0  0  0  0  0  0  0  0  0
   -1.9083    0.8458    0.0000 O   0  0  0  0  0  0  0  0  0  0  0  0
    2.3667    0.8625    0.0000 C   0  0  0  0  0  0  0  0  0  0  0  0
    3.0792   -0.3750    0.0000 C   0  0  0  0  0  0  0  0  0  0  0  0
    2.3792   -1.6167    0.0000 C   0  0  0  0  0  0  0  0  0  0  0  0
    0.2292    2.0875    0.0000 C   0  0  0  0  0  0  0  0  0  0  0  0
   -1.1958   -2.0417    0.0000 C   0  0  0  0  0  0  0  0  0  0  0  0
   -2.6250    0.4333    0.0000 C   0  0  0  0  0  0  0  0  0  0  0  0
    3.8000   -0.7792    0.0000 C   0  0  0  0  0  0  0  0  0  0  0  0
    3.0917   -2.0250    0.0000 C   0  0  0  0  0  0  0  0  0  0  0  0
    3.8042   -1.6042    0.0000 C   0  0  0  0  0  0  0  0  0  0  0  0
  2  1  1  0
  3  1  2  0
  4  2  1  0
  5  3  1  0
  6  5  1  0
  7  1  1  0
  8  3  1  0
  9 10  1  0
 10  7  2  0
 11  2  2  0
 12  4  1  0
 13  8  1  0
 14  7  1  0
 15  9  1  0
 16  6  1  0
 17 12  2  0
 18 12  1  0
 19 13  1  0
 20 14  1  0
 21 15  1  0
 22 17  1  0
 23 18  2  0
 24 23  1  0
  9  8  2  0
  6  4  2  0
 24 22  2  0
M  END
>  <ID>  (2310) 


>  <MOLENAME>  (2310) 
2-METHYL-5.7.8-TRIMETHOXYISOFLAVONE

>  <therap>  (2310) 
nan

>  <ref>  (2310) 
nan

>  <cas#>  (2310) 
nan

>  <source>  (2310) 
derivative

>  <status>  (2310) 
undetermined activity

>  <tradename>  (2310) 
nan

>  <SMILES>  (2310) 
COc1c(OC)c2c(c(OC)c1)c(=O)c(-c1ccccc1)c(C)o2

>  <standardized_failed>  (2310) 
False

$$$$

     RDKit          2D

 13 13  0  0  0  0  0  0  0  0999 V2000
    6.9292   -2.0667    0.0000 C   0  0  0  0  0  0  0  0  0  0  0  0
    6.5167   -2.7792    0.0000 C   0  0  0  0  0  0  0  0  0  0  0  0
    6.5167   -1.3542    0.0000 C   0  0  0  0  0  0  0  0  0  0  0  0
    7.7542   -2.0667    0.0000 C   0  0  0  0  0  0  0  0  0  0  0  0
    5.6917   -2.7792    0.0000 C   0  0  0  0  0  0  0  0  0  0  0  0
    5.6917   -1.3542    0.0000 C   0  0  0  0  0  0  0  0  0  0  0  0
    5.2792   -2.0667    0.0000 C   0  0  0  0  0  0  0  0  0  0  0  0
    8.1667   -1.3542    0.0000 O   0  0  0  0  0  0  0  0  0  0  0  0
    6.9292   -3.4917    0.0000 O   0  0  0  0  0  0  0  0  0  0  0  0
    8.1667   -2.7792    0.0000 O   0  0  0  0  0  0  0  0  0  0  0  0
    4.4542   -2.0667    0.0000 O   0  0  0  0  0  0  0  0  0  0  0  0
    6.9292   -0.6375    0.0000 C   0  0  0  0  0  0  0  0  0  0  0  0
    4.0417   -1.3542    0.0000 C   0  0  0  0  0  0  0  0  0  0  0  0
  2  1  2  0
  3  1  1  0
  4  1  1  0
  5  2  1  0
  6  3  2  0
  7  6  1  0
  8  4  2  0
  9  2  1  0
 10  4  1  0
 11  7  1  0
 12  3  1  0
 13 11  1  0
  7  5  2  0
M  END
>  <ID>  (2311) 


>  <MOLENAME>  (2311) 
EVERNINIC ACID

>  <therap>  (2311) 
nan

>  <ref>  (2311) 
Ber 56: 2556 (1923); JACS 88: 2053 (1966); Tetrahedron 24: 2707 (1968); J Chem Soc 1984: 1035,1043

>  <cas#>  (2311) 
570-10-5

>  <source>  (2311) 
Evernia prunastri

>  <status>  (2311) 
undetermined activity

>  <tradename>  (2311) 
nan

>  <SMILES>  (2311) 
COc1cc(O)c(C(=O)O)c(C)c1

>  <standardized_failed>  (2311) 
False

$$$$

     RDKit          2D

 16 16  0  0  0  0  0  0  0  0999 V2000
    9.2792   -3.9250    0.0000 C   0  0  0  0  0  0  0  0  0  0  0  0
    7.8625   -3.1042    0.0000 C   0  0  0  0  0  0  0  0  0  0  0  0
    8.5667   -4.3375    0.0000 C   0  0  0  0  0  0  0  0  0  0  0  0
    9.2792   -3.1000    0.0000 C   0  0  0  0  0  0  0  0  0  0  0  0
    7.8542   -3.9292    0.0000 C   0  0  0  0  0  0  0  0  0  0  0  0
    8.5667   -2.6917    0.0000 C   0  0  0  0  0  0  0  0  0  0  0  0
   10.0000   -4.3292    0.0000 O   0  0  0  0  0  0  0  0  0  0  0  0
    7.1500   -2.7000    0.0000 C   0  0  0  0  0  0  0  0  0  0  0  0
    6.4375   -3.1125    0.0000 C   0  0  0  0  0  0  0  0  0  0  0  0
    2.1625   -3.1250    0.0000 C   0  0  0  0  0  0  0  0  0  0  0  0
    2.8750   -2.7125    0.0000 C   0  0  0  0  0  0  0  0  0  0  0  0
    4.3000   -2.7042    0.0000 C   0  0  0  0  0  0  0  0  0  0  0  0
    5.0125   -3.1167    0.0000 C   0  0  0  0  0  0  0  0  0  0  0  0
    5.7250   -2.7042    0.0000 C   0  0  0  0  0  0  0  0  0  0  0  0
    3.5875   -3.1167    0.0000 C   0  0  0  0  0  0  0  0  0  0  0  0
    1.4417   -2.7125    0.0000 C   0  0  0  0  0  0  0  0  0  0  0  0
  2  6  1  0
  3  1  2  0
  4  1  1  0
  5  3  1  0
  6  4  2  0
  7  1  1  0
  8  2  1  0
  9  8  1  0
 10 11  1  0
 11 15  1  0
 12 13  1  0
 13 14  1  0
 14  9  1  0
 15 12  1  0
 16 10  1  0
  2  5  2  0
M  END
>  <ID>  (2312) 


>  <MOLENAME>  (2312) 
4-NONYLPHENOL

>  <therap>  (2312) 
weevil pheromone, shows estrogenic activity

>  <ref>  (2312) 
nan

>  <cas#>  (2312) 
104-40-5

>  <source>  (2312) 
elephant secretant

>  <status>  (2312) 
agricultural use

>  <tradename>  (2312) 
nan

>  <SMILES>  (2312) 
CCCCCCCCCc1ccc(O)cc1

>  <standardized_failed>  (2312) 
False

$$$$

     RDKit          2D

 20 21  0  0  0  0  0  0  0  0999 V2000
   -2.0500    0.0958    0.0000 C   0  0  0  0  0  0  0  0  0  0  0  0
   -3.0208    0.6333    0.0000 C   0  0  0  0  0  0  0  0  0  0  0  0
   -4.0208    0.0625    0.0000 C   0  0  0  0  0  0  0  0  0  0  0  0
   -1.0500    0.6625    0.0000 C   0  0  0  0  0  0  0  0  0  0  0  0
   -2.0500   -1.0500    0.0000 C   0  0  0  0  0  0  0  0  0  0  0  0
   -0.0833    0.0958    0.0000 C   0  0  0  0  0  0  0  0  0  0  0  0
   -4.0208   -1.0500    0.0000 C   0  0  0  0  0  0  0  0  0  0  0  0
   -1.0500    1.8000    0.0000 O   0  0  0  0  0  0  0  0  0  0  0  0
   -3.0208   -1.6167    0.0000 C   0  0  0  0  0  0  0  0  0  0  0  0
   -0.0833   -1.0292    0.0000 C   0  0  0  0  0  0  0  0  0  0  0  0
    0.9167    0.6625    0.0000 C   0  0  0  0  0  0  0  0  0  0  0  0
   -3.0208    1.7708    0.0000 O   0  0  0  0  0  0  0  0  0  0  0  0
   -5.0208    0.6333    0.0000 O   0  0  0  0  0  0  0  0  0  0  0  0
    1.8792   -1.0500    0.0000 C   0  0  0  0  0  0  0  0  0  0  0  0
    1.8875    0.0958    0.0000 C   0  0  0  0  0  0  0  0  0  0  0  0
    0.9000   -1.6000    0.0000 C   0  0  0  0  0  0  0  0  0  0  0  0
   -5.0208   -1.6500    0.0000 O   0  0  0  0  0  0  0  0  0  0  0  0
    2.8542   -1.6500    0.0000 O   0  0  0  0  0  0  0  0  0  0  0  0
    3.8667   -1.1000    0.0000 C   0  0  0  0  0  0  0  0  0  0  0  0
    4.8292   -1.6667    0.0000 C   0  0  0  0  0  0  0  0  0  0  0  0
  2  1  2  0
  3  2  1  0
  4  1  1  0
  5  1  1  0
  6  4  1  0
  7  9  1  0
  8  4  2  0
  9  5  2  0
 10  6  2  0
 11  6  1  0
 12  2  1  0
 13  3  1  0
 14 15  1  0
 15 11  2  0
 16 10  1  0
 17  7  1  0
 18 14  1  0
 19 18  1  0
 20 19  1  0
  7  3  2  0
 14 16  2  0
M  END
>  <ID>  (2313) 


>  <MOLENAME>  (2313) 
2.3.4-TRIHYDROXY-4'-ETHOXYBENZOPHENONE

>  <therap>  (2313) 
nan

>  <ref>  (2313) 
nan

>  <cas#>  (2313) 
nan

>  <source>  (2313) 
semisynthetic

>  <status>  (2313) 
undetermined activity

>  <tradename>  (2313) 
nan

>  <SMILES>  (2313) 
CCOc1ccc(C(=O)c2c(O)c(O)c(O)cc2)cc1

>  <standardized_failed>  (2313) 
False

$$$$

     RDKit          2D

 39 44  0  0  0  0  0  0  0  0999 V2000
    6.5542   -3.3417    0.0000 C   0  0  0  0  0  0  0  0  0  0  0  0
    7.2667   -3.7292    0.0000 C   0  0  0  0  0  0  0  0  0  0  0  0
    5.8292   -3.7292    0.0000 C   0  0  0  0  0  0  0  0  0  0  0  0
    6.5542   -2.5167    0.0000 C   0  0  0  0  0  0  0  0  0  0  0  0
    6.5542   -4.1167    0.0000 O   0  0  0  0  0  0  0  0  0  0  0  0
    4.4042   -3.7292    0.0000 C   0  0  0  0  0  0  0  0  0  0  0  0
    5.1042   -3.3417    0.0000 C   0  0  0  0  0  0  0  0  0  0  0  0
    7.9667   -3.3417    0.0000 C   0  0  0  0  0  0  0  0  0  0  0  0
    4.4042   -4.5667    0.0000 C   0  0  0  0  0  0  0  0  0  0  0  0
    7.2667   -2.0792    0.0000 C   0  0  0  0  0  0  0  0  0  0  0  0
    7.9667   -2.5167    0.0000 O   0  0  0  0  0  0  0  0  0  0  0  0
    5.8292   -4.5417    0.0000 C   0  0  0  0  0  0  0  0  0  0  0  0
    3.7042   -3.3417    0.0000 C   0  0  0  0  0  0  0  0  0  0  0  0
    3.7042   -4.9792    0.0000 C   0  0  0  0  0  0  0  0  0  0  0  0
    7.2667   -1.2542    0.0000 C   0  0  0  0  0  0  0  0  0  0  0  0
    5.1417   -4.9542    0.0000 C   0  0  0  0  0  0  0  0  0  0  0  0
    5.8292   -2.0792    0.0000 C   0  0  0  0  0  0  0  0  0  0  0  0
    2.9792   -3.7292    0.0000 C   0  0  0  0  0  0  0  0  0  0  0  0
    2.9792   -4.5667    0.0000 C   0  0  0  0  0  0  0  0  0  0  0  0
    5.1042   -2.5167    0.0000 C   0  0  0  0  0  0  0  0  0  0  0  0
    6.5417   -4.9417    0.0000 O   0  0  0  0  0  0  0  0  0  0  0  0
    3.6917   -2.5167    0.0000 O   0  0  0  0  0  0  0  0  0  0  0  0
    6.5542   -5.8042    0.0000 C   0  0  0  0  0  0  0  0  0  0  0  0
    3.0042   -2.1417    0.0000 C   0  0  0  0  0  0  0  0  0  0  0  0
    8.6917   -3.7667    0.0000 O   0  0  0  0  0  0  0  0  0  0  0  0
    7.8167   -0.6667    0.0000 C   0  0  0  0  0  0  0  0  0  0  0  0
    6.5292   -0.8792    0.0000 C   0  0  0  0  0  0  0  0  0  0  0  0
    7.4500    0.0583    0.0000 O   0  0  0  0  0  0  0  0  0  0  0  0
    6.6292   -0.0917    0.0000 C   0  0  0  0  0  0  0  0  0  0  0  0
    5.8667   -6.2292    0.0000 O   0  0  0  0  0  0  0  0  0  0  0  0
    3.0042   -1.3417    0.0000 O   0  0  0  0  0  0  0  0  0  0  0  0
    5.8292   -2.7542    0.0000 C   0  0  0  0  0  0  0  0  0  0  0  0
    6.5542   -1.6667    0.0000 C   0  0  0  0  0  0  0  0  0  0  0  0
    4.4042   -2.8042    0.0000 C   0  0  0  0  0  0  0  0  0  0  0  0
    2.2542   -4.9667    0.0000 O   0  0  0  0  0  0  0  0  0  0  0  0
    2.9792   -5.4167    0.0000 C   0  0  0  0  0  0  0  0  0  0  0  0
    4.4042   -5.4167    0.0000 C   0  0  0  0  0  0  0  0  0  0  0  0
    7.3542   -6.1542    0.0000 C   0  0  0  0  0  0  0  0  0  0  0  0
    2.2292   -2.5417    0.0000 C   0  0  0  0  0  0  0  0  0  0  0  0
  2  1  1  0
  3  1  1  0
  4  1  1  0
  5  1  1  0
  6  7  1  0
  7  3  1  0
  8  2  1  0
  9 16  1  0
 10  4  1  0
 10 11  1  6
 12  3  1  0
 13  6  1  0
 14  9  1  0
 10 15  1  0
 16 12  1  0
 17  4  1  0
 18 13  1  0
 19 14  1  0
 20 17  1  0
 12 21  1  6
 13 22  1  6
 23 21  1  0
 24 22  1  0
 25  8  2  0
 26 15  2  0
 27 15  1  0
 28 26  1  0
 29 27  2  0
 30 23  2  0
 31 24  2  0
  3 32  1  1
  4 33  1  6
  6 34  1  1
 19 35  1  6
 36 14  1  0
 37 14  1  0
 38 23  1  0
 39 24  1  0
  2  5  1  0
  7 20  1  0
 11  8  1  0
  6  9  1  0
 28 29  1  0
 19 18  1  0
M  END
>  <ID>  (2314) 


>  <MOLENAME>  (2314) 
3-DEACETYLKHIVORIN

>  <therap>  (2314) 
nan

>  <ref>  (2314) 
nan

>  <cas#>  (2314) 
nan

>  <source>  (2314) 
Meliaceae spp

>  <status>  (2314) 
undetermined activity

>  <tradename>  (2314) 
nan

>  <SMILES>  (2314) 
CC(=O)O[C@H]1C[C@@H](O)C(C)(C)C2C[C@@H](OC(C)=O)[C@]3(C)C(CC[C@@]4(C)[C@H](c5cocc5)OC(=O)C5OC543)[C@]21C

>  <standardized_failed>  (2314) 
False

$$$$

     RDKit          2D

 34 38  0  0  0  0  0  0  0  0999 V2000
    6.6125   -3.6542    0.0000 C   0  0  0  0  0  0  0  0  0  0  0  0
    6.6125   -2.8292    0.0000 C   0  0  0  0  0  0  0  0  0  0  0  0
    4.3875   -4.0292    0.0000 C   0  0  0  0  0  0  0  0  0  0  0  0
    5.9000   -4.0667    0.0000 C   0  0  0  0  0  0  0  0  0  0  0  0
    5.1792   -3.6542    0.0000 C   0  0  0  0  0  0  0  0  0  0  0  0
    5.8000   -3.2500    0.0000 O   0  0  0  0  0  0  0  0  0  0  0  0
    3.6750   -4.4417    0.0000 C   0  0  0  0  0  0  0  0  0  0  0  0
    4.3875   -3.2000    0.0000 C   0  0  0  0  0  0  0  0  0  0  0  0
    7.3250   -2.4167    0.0000 C   0  0  0  0  0  0  0  0  0  0  0  0
    2.9542   -4.0292    0.0000 C   0  0  0  0  0  0  0  0  0  0  0  0
    7.3250   -4.0667    0.0000 C   0  0  0  0  0  0  0  0  0  0  0  0
    8.0417   -2.8292    0.0000 O   0  0  0  0  0  0  0  0  0  0  0  0
    8.0417   -3.6542    0.0000 C   0  0  0  0  0  0  0  0  0  0  0  0
    7.3250   -1.5875    0.0000 C   0  0  0  0  0  0  0  0  0  0  0  0
    3.6750   -2.7875    0.0000 C   0  0  0  0  0  0  0  0  0  0  0  0
    2.9542   -3.2000    0.0000 C   0  0  0  0  0  0  0  0  0  0  0  0
    5.9000   -2.4167    0.0000 C   0  0  0  0  0  0  0  0  0  0  0  0
    5.1792   -2.8292    0.0000 C   0  0  0  0  0  0  0  0  0  0  0  0
    3.6750   -5.2667    0.0000 C   0  0  0  0  0  0  0  0  0  0  0  0
    2.9625   -5.6792    0.0000 C   0  0  0  0  0  0  0  0  0  0  0  0
    7.9042   -1.0042    0.0000 C   0  0  0  0  0  0  0  0  0  0  0  0
    6.6000   -1.2125    0.0000 C   0  0  0  0  0  0  0  0  0  0  0  0
    7.5292   -0.2792    0.0000 O   0  0  0  0  0  0  0  0  0  0  0  0
    5.9000   -4.8917    0.0000 C   0  0  0  0  0  0  0  0  0  0  0  0
    8.7625   -4.0667    0.0000 O   0  0  0  0  0  0  0  0  0  0  0  0
    6.7292   -0.3917    0.0000 C   0  0  0  0  0  0  0  0  0  0  0  0
    2.2417   -5.2667    0.0000 O   0  0  0  0  0  0  0  0  0  0  0  0
    6.6125   -2.0000    0.0000 C   0  0  0  0  0  0  0  0  0  0  0  0
    4.3917   -4.8417    0.0000 C   0  0  0  0  0  0  0  0  0  0  0  0
    2.2375   -2.7792    0.0000 O   0  0  0  0  0  0  0  0  0  0  0  0
    2.9625   -6.5042    0.0000 O   0  0  0  0  0  0  0  0  0  0  0  0
    2.1542   -4.2417    0.0000 C   0  0  0  0  0  0  0  0  0  0  0  0
    2.9542   -4.8542    0.0000 C   0  0  0  0  0  0  0  0  0  0  0  0
    2.2500   -6.9167    0.0000 C   0  0  0  0  0  0  0  0  0  0  0  0
  2  1  1  0
  3  8  1  0
  4  1  1  0
  5  4  1  0
  1  6  1  0
  7  3  1  0
  8  6  1  0
  9  2  1  0
 10 16  1  0
  1 11  1  1
 12 13  1  0
 13 11  1  0
  9 14  1  0
  8 15  1  6
 16 15  1  0
 17  2  1  0
  5 18  1  6
  7 19  1  1
 20 19  1  0
 21 14  2  0
 22 14  1  0
 23 21  1  0
 24  4  2  0
 25 13  2  0
 26 22  2  0
 27 20  2  0
  2 28  1  6
  3 29  1  1
 16 30  1  1
 31 20  1  0
 32 10  1  0
 33 10  1  0
 34 31  1  0
  5  3  1  0
  9 12  1  6
 17 18  1  0
  7 10  1  0
 23 26  1  0
M  END
>  <ID>  (2315) 


>  <MOLENAME>  (2315) 
3-DEOXY-3beta-HYDROXYANGOLENSIC ACID METHYL ESTER

>  <therap>  (2315) 
nan

>  <ref>  (2315) 
nan

>  <cas#>  (2315) 
nan

>  <source>  (2315) 
Meliaceae spp

>  <status>  (2315) 
undetermined activity

>  <tradename>  (2315) 
nan

>  <SMILES>  (2315) 
C=C1[C@H]2CC[C@@]3(C)[C@H](c4cocc4)OC(=O)C[C@]13O[C@H]1C[C@H](O)C(C)(C)[C@H](CC(=O)OC)[C@]12C

>  <standardized_failed>  (2315) 
False

$$$$

     RDKit          2D

 34 38  0  0  0  0  0  0  0  0999 V2000
    0.5125   -1.2375    0.0000 C   0  0  0  0  0  0  0  0  0  0  0  0
    0.5125   -0.4042    0.0000 C   0  0  0  0  0  0  0  0  0  0  0  0
   -1.6375   -1.6417    0.0000 C   0  0  0  0  0  0  0  0  0  0  0  0
   -0.2083   -1.6417    0.0000 C   0  0  0  0  0  0  0  0  0  0  0  0
   -0.9250   -1.2292    0.0000 C   0  0  0  0  0  0  0  0  0  0  0  0
   -2.3500   -0.4042    0.0000 O   0  0  0  0  0  0  0  0  0  0  0  0
   -1.6375   -2.4750    0.0000 C   0  0  0  0  0  0  0  0  0  0  0  0
   -2.3500   -1.2292    0.0000 C   0  0  0  0  0  0  0  0  0  0  0  0
    1.2250    0.0083    0.0000 C   0  0  0  0  0  0  0  0  0  0  0  0
   -2.3500   -2.8875    0.0000 C   0  0  0  0  0  0  0  0  0  0  0  0
    1.2250   -1.6417    0.0000 C   0  0  0  0  0  0  0  0  0  0  0  0
    1.9417   -0.4042    0.0000 O   0  0  0  0  0  0  0  0  0  0  0  0
    1.9417   -1.2292    0.0000 C   0  0  0  0  0  0  0  0  0  0  0  0
    1.2250    0.8333    0.0000 C   0  0  0  0  0  0  0  0  0  0  0  0
   -3.0708   -1.6417    0.0000 C   0  0  0  0  0  0  0  0  0  0  0  0
   -3.0708   -2.4750    0.0000 C   0  0  0  0  0  0  0  0  0  0  0  0
   -0.2083    0.0083    0.0000 C   0  0  0  0  0  0  0  0  0  0  0  0
   -0.9250   -0.4042    0.0000 C   0  0  0  0  0  0  0  0  0  0  0  0
   -0.9208   -2.9000    0.0000 C   0  0  0  0  0  0  0  0  0  0  0  0
   -0.9250   -3.7292    0.0000 C   0  0  0  0  0  0  0  0  0  0  0  0
    1.8667    1.3458    0.0000 C   0  0  0  0  0  0  0  0  0  0  0  0
    0.5417    1.2875    0.0000 C   0  0  0  0  0  0  0  0  0  0  0  0
    1.5750    2.1208    0.0000 O   0  0  0  0  0  0  0  0  0  0  0  0
   -0.2083   -2.4667    0.0000 C   0  0  0  0  0  0  0  0  0  0  0  0
    2.6625   -1.6542    0.0000 O   0  0  0  0  0  0  0  0  0  0  0  0
    0.7625    2.0833    0.0000 C   0  0  0  0  0  0  0  0  0  0  0  0
   -1.6375   -4.1500    0.0000 O   0  0  0  0  0  0  0  0  0  0  0  0
    0.5125    0.4208    0.0000 C   0  0  0  0  0  0  0  0  0  0  0  0
   -1.6458   -0.8167    0.0000 C   0  0  0  0  0  0  0  0  0  0  0  0
   -3.7875   -2.8917    0.0000 O   0  0  0  0  0  0  0  0  0  0  0  0
   -0.2083   -4.1417    0.0000 O   0  0  0  0  0  0  0  0  0  0  0  0
   -2.7625   -3.6042    0.0000 C   0  0  0  0  0  0  0  0  0  0  0  0
   -1.9375   -3.6042    0.0000 C   0  0  0  0  0  0  0  0  0  0  0  0
   -0.2083   -4.9750    0.0000 C   0  0  0  0  0  0  0  0  0  0  0  0
  2  1  1  0
  3  8  1  0
  4  1  1  0
  5  4  1  0
  1  6  1  0
  7  3  1  0
  8  6  1  0
  9  2  1  0
 10 16  1  0
  1 11  1  1
 12 13  1  0
 13 11  1  0
  9 14  1  0
  8 15  1  6
 16 15  1  0
 17  2  1  0
 18  5  1  0
 19  7  1  0
 20 19  1  0
 21 14  2  0
 22 14  1  0
 23 21  1  0
 24  4  2  0
 25 13  2  0
 26 22  2  0
 27 20  2  0
  2 28  1  6
  3 29  1  1
 30 16  1  0
 31 20  1  0
 32 10  1  0
 33 10  1  0
 34 31  1  0
  3  5  1  0
  9 12  1  6
 17 18  1  0
  7 10  1  0
 26 23  1  0
M  END
>  <ID>  (2316) 


>  <MOLENAME>  (2316) 
3alpha-HYDROXY-3-DEOXYANGOLENSIC ACID METHYL ESTER

>  <therap>  (2316) 
nan

>  <ref>  (2316) 
nan

>  <cas#>  (2316) 
nan

>  <source>  (2316) 
Meliaceae spp

>  <status>  (2316) 
undetermined activity

>  <tradename>  (2316) 
nan

>  <SMILES>  (2316) 
C=C1C2CC[C@@]3(C)[C@H](c4cocc4)OC(=O)C[C@]13O[C@H]1CC(O)C(C)(C)C(CC(=O)OC)[C@@]21C

>  <standardized_failed>  (2316) 
False

$$$$

     RDKit          2D

 38 43  0  0  0  0  0  0  0  0999 V2000
    5.2917   -0.3292    0.0000 C   0  0  0  0  0  0  0  0  0  0  0  0
    6.1542   -0.7917    0.0000 C   0  0  0  0  0  0  0  0  0  0  0  0
    4.4292   -0.7917    0.0000 C   0  0  0  0  0  0  0  0  0  0  0  0
    5.2917    0.6750    0.0000 C   0  0  0  0  0  0  0  0  0  0  0  0
    5.3042   -1.3792    0.0000 O   0  0  0  0  0  0  0  0  0  0  0  0
    2.6667   -0.7917    0.0000 C   0  0  0  0  0  0  0  0  0  0  0  0
    3.5417   -0.3292    0.0000 C   0  0  0  0  0  0  0  0  0  0  0  0
    7.0042   -0.3292    0.0000 C   0  0  0  0  0  0  0  0  0  0  0  0
    2.6667   -1.7917    0.0000 C   0  0  0  0  0  0  0  0  0  0  0  0
    6.1542    1.1958    0.0000 C   0  0  0  0  0  0  0  0  0  0  0  0
    7.0042    0.6750    0.0000 O   0  0  0  0  0  0  0  0  0  0  0  0
    4.4292   -1.7667    0.0000 C   0  0  0  0  0  0  0  0  0  0  0  0
    1.8167   -2.3125    0.0000 C   0  0  0  0  0  0  0  0  0  0  0  0
    6.1500    1.9958    0.0000 C   0  0  0  0  0  0  0  0  0  0  0  0
    3.5792   -2.2625    0.0000 C   0  0  0  0  0  0  0  0  0  0  0  0
    4.4292    1.1958    0.0000 C   0  0  0  0  0  0  0  0  0  0  0  0
    0.9500   -1.7917    0.0000 C   0  0  0  0  0  0  0  0  0  0  0  0
    3.5417    0.6750    0.0000 C   0  0  0  0  0  0  0  0  0  0  0  0
    1.8167   -0.3292    0.0000 C   0  0  0  0  0  0  0  0  0  0  0  0
    5.3167   -2.2125    0.0000 O   0  0  0  0  0  0  0  0  0  0  0  0
    0.0625   -2.3000    0.0000 O   0  0  0  0  0  0  0  0  0  0  0  0
    5.3042   -3.1667    0.0000 C   0  0  0  0  0  0  0  0  0  0  0  0
    0.0625   -3.3042    0.0000 C   0  0  0  0  0  0  0  0  0  0  0  0
    7.8792   -0.8292    0.0000 O   0  0  0  0  0  0  0  0  0  0  0  0
    6.8167    2.7083    0.0000 C   0  0  0  0  0  0  0  0  0  0  0  0
    5.2542    2.4375    0.0000 C   0  0  0  0  0  0  0  0  0  0  0  0
    6.3750    3.5875    0.0000 O   0  0  0  0  0  0  0  0  0  0  0  0
    0.9500   -0.7917    0.0000 C   0  0  0  0  0  0  0  0  0  0  0  0
    5.3875    3.3958    0.0000 C   0  0  0  0  0  0  0  0  0  0  0  0
   -0.7750   -3.8542    0.0000 O   0  0  0  0  0  0  0  0  0  0  0  0
    6.2292   -3.7542    0.0000 O   0  0  0  0  0  0  0  0  0  0  0  0
    4.4292    0.3958    0.0000 C   0  0  0  0  0  0  0  0  0  0  0  0
    5.2917    1.6833    0.0000 C   0  0  0  0  0  0  0  0  0  0  0  0
    2.6667    0.3208    0.0000 C   0  0  0  0  0  0  0  0  0  0  0  0
    2.6667   -2.8375    0.0000 C   0  0  0  0  0  0  0  0  0  0  0  0
    0.9500   -2.8375    0.0000 C   0  0  0  0  0  0  0  0  0  0  0  0
    0.9000   -3.8542    0.0000 C   0  0  0  0  0  0  0  0  0  0  0  0
    4.5542   -3.6917    0.0000 C   0  0  0  0  0  0  0  0  0  0  0  0
  2  1  1  0
  3  1  1  0
  4  1  1  0
  1  5  1  1
  6  7  1  0
  7  3  1  0
  8  2  1  0
  9 15  1  0
 10  4  1  0
 10 11  1  6
 12  3  1  0
 13  9  1  0
 10 14  1  0
 15 12  1  0
 16  4  1  0
 17 13  1  0
 18 16  1  0
 19  6  1  0
 12 20  1  6
 17 21  1  1
 22 20  1  0
 23 21  1  0
 24  8  2  0
 25 14  2  0
 26 14  1  0
 27 25  1  0
 28 19  1  0
 29 26  2  0
 30 23  2  0
 31 22  2  0
  3 32  1  1
  4 33  1  6
  6 34  1  1
 35 13  1  0
 36 13  1  0
 37 23  1  0
 38 22  1  0
  2  5  1  1
  7 18  1  0
  8 11  1  0
  6  9  1  0
 27 29  1  0
 17 28  1  0
M  END
>  <ID>  (2317) 


>  <MOLENAME>  (2317) 
3-ACETYLGEDUNOL

>  <therap>  (2317) 
nan

>  <ref>  (2317) 
nan

>  <cas#>  (2317) 
nan

>  <source>  (2317) 
Meliaceae spp

>  <status>  (2317) 
undetermined activity

>  <tradename>  (2317) 
nan

>  <SMILES>  (2317) 
CC(=O)O[C@H]1CC[C@@]2(C)C(C[C@@H](OC(C)=O)[C@]3(C)C2CC[C@@]2(C)[C@H](c4cocc4)OC(=O)[C@H]4O[C@]423)C1(C)C

>  <standardized_failed>  (2317) 
False

$$$$

     RDKit          2D

 24 27  0  0  0  0  0  0  0  0999 V2000
    4.5000   -1.7292    0.0000 C   0  0  0  0  0  0  0  0  0  0  0  0
    3.0625   -2.5667    0.0000 C   0  0  0  0  0  0  0  0  0  0  0  0
    4.5000   -2.5667    0.0000 C   0  0  0  0  0  0  0  0  0  0  0  0
    2.3417   -2.9750    0.0000 C   0  0  0  0  0  0  0  0  0  0  0  0
    3.7792   -2.9750    0.0000 C   0  0  0  0  0  0  0  0  0  0  0  0
    3.7792   -1.3292    0.0000 C   0  0  0  0  0  0  0  0  0  0  0  0
    5.2917   -1.4792    0.0000 C   0  0  0  0  0  0  0  0  0  0  0  0
    3.0625   -1.7292    0.0000 C   0  0  0  0  0  0  0  0  0  0  0  0
    2.3417   -3.7917    0.0000 C   0  0  0  0  0  0  0  0  0  0  0  0
    5.2917   -2.8167    0.0000 C   0  0  0  0  0  0  0  0  0  0  0  0
    1.6250   -2.5667    0.0000 C   0  0  0  0  0  0  0  0  0  0  0  0
    5.7667   -2.1167    0.0000 C   0  0  0  0  0  0  0  0  0  0  0  0
    3.7792   -3.7917    0.0000 C   0  0  0  0  0  0  0  0  0  0  0  0
    5.5125   -0.6875    0.0000 C   0  0  0  0  0  0  0  0  0  0  0  0
    3.0625   -4.1917    0.0000 C   0  0  0  0  0  0  0  0  0  0  0  0
    1.6250   -4.1917    0.0000 C   0  0  0  0  0  0  0  0  0  0  0  0
    6.3042   -0.4250    0.0000 O   0  0  0  0  0  0  0  0  0  0  0  0
    3.7792   -0.5042    0.0000 O   0  0  0  0  0  0  0  0  0  0  0  0
    4.5000   -0.9167    0.0000 C   0  0  0  0  0  0  0  0  0  0  0  0
    0.9042   -2.9750    0.0000 C   0  0  0  0  0  0  0  0  0  0  0  0
    0.9042   -3.7917    0.0000 C   0  0  0  0  0  0  0  0  0  0  0  0
    2.3542   -2.1750    0.0000 C   0  0  0  0  0  0  0  0  0  0  0  0
    0.1750   -4.1917    0.0000 O   0  0  0  0  0  0  0  0  0  0  0  0
    5.0375   -0.0125    0.0000 C   0  0  0  0  0  0  0  0  0  0  0  0
  2  8  1  0
  3  1  1  0
  4  2  1  0
  5  3  1  0
  6  1  1  0
  7  1  1  0
  8  6  1  0
  9  4  1  0
 10  3  1  0
 11  4  1  0
 12  7  1  0
 13  5  1  0
 14  7  1  0
 15 13  1  0
 16  9  1  0
 17 14  2  0
  6 18  1  6
 19  1  1  0
 20 11  1  0
 21 20  1  0
 22  4  1  0
 21 23  1  6
 24 14  1  0
 10 12  1  0
  5  2  1  0
 15  9  1  0
 21 16  1  0
M  END
>  <ID>  (2318) 


>  <MOLENAME>  (2318) 
3alpha.12alpha-DIHYDROXY-PREGNAN-20-ONE

>  <therap>  (2318) 
nan

>  <ref>  (2318) 
nan

>  <cas#>  (2318) 
nan

>  <source>  (2318) 
semisynthetic

>  <status>  (2318) 
undetermined activity

>  <tradename>  (2318) 
nan

>  <SMILES>  (2318) 
CC(=O)C1CCC2C3CCC4C[C@H](O)CCC4(C)C3C[C@H](O)C12C

>  <standardized_failed>  (2318) 
False

$$$$

     RDKit          2D

 21 24  0  0  0  0  0  0  0  0999 V2000
    5.3292   -2.2875    0.0000 C   0  0  0  0  0  0  0  0  0  0  0  0
    7.5542   -1.0000    0.0000 C   0  0  0  0  0  0  0  0  0  0  0  0
    6.0667   -1.8500    0.0000 C   0  0  0  0  0  0  0  0  0  0  0  0
    7.5542   -1.8500    0.0000 C   0  0  0  0  0  0  0  0  0  0  0  0
    6.8042   -2.2875    0.0000 C   0  0  0  0  0  0  0  0  0  0  0  0
    5.3292   -3.1375    0.0000 C   0  0  0  0  0  0  0  0  0  0  0  0
    8.3667   -0.7250    0.0000 C   0  0  0  0  0  0  0  0  0  0  0  0
    6.8042   -0.5542    0.0000 C   0  0  0  0  0  0  0  0  0  0  0  0
    6.0667   -1.0000    0.0000 C   0  0  0  0  0  0  0  0  0  0  0  0
    4.5792   -1.8500    0.0000 C   0  0  0  0  0  0  0  0  0  0  0  0
    8.3667   -2.1042    0.0000 C   0  0  0  0  0  0  0  0  0  0  0  0
    6.8042   -3.1375    0.0000 C   0  0  0  0  0  0  0  0  0  0  0  0
    4.5792   -3.5750    0.0000 C   0  0  0  0  0  0  0  0  0  0  0  0
    6.0667   -3.5750    0.0000 C   0  0  0  0  0  0  0  0  0  0  0  0
    8.8542   -1.4375    0.0000 C   0  0  0  0  0  0  0  0  0  0  0  0
    3.8417   -3.1375    0.0000 C   0  0  0  0  0  0  0  0  0  0  0  0
    8.5792    0.0750    0.0000 O   0  0  0  0  0  0  0  0  0  0  0  0
    3.1167   -3.5417    0.0000 O   0  0  0  0  0  0  0  0  0  0  0  0
    3.8417   -2.2875    0.0000 C   0  0  0  0  0  0  0  0  0  0  0  0
    5.3292   -1.4375    0.0000 C   0  0  0  0  0  0  0  0  0  0  0  0
    7.5417   -0.1750    0.0000 C   0  0  0  0  0  0  0  0  0  0  0  0
  2  8  1  0
  3  1  1  0
  4  5  1  0
  5  3  1  0
  6  1  1  0
  7  2  1  0
  8  9  1  0
  9  3  1  0
 10  1  1  0
 11  4  1  0
 12 14  1  0
  6 13  1  1
 14  6  1  0
 15 11  1  0
 16 19  1  0
 17  7  2  0
 18 16  2  0
 19 10  1  0
  1 20  1  1
  2 21  1  1
 13 16  1  0
  5 12  1  0
  4  2  1  0
 15  7  1  0
M  END
>  <ID>  (2319) 


>  <MOLENAME>  (2319) 
5alpha-ANDROSTAN-3.17-DIONE

>  <therap>  (2319) 
androgen, aromatase inhibitor

>  <ref>  (2319) 
J Steroid Biochem Mol Biol 41:185 (1992); J Clin Endocrin Metab 81:3686 (1966)

>  <cas#>  (2319) 
nan

>  <source>  (2319) 
human urine & adrenal cortex

>  <status>  (2319) 
experimental

>  <tradename>  (2319) 
nan

>  <SMILES>  (2319) 
C[C@]12CCC3C(CC[C@H]4CC(=O)CC[C@]34C)C1CCC2=O

>  <standardized_failed>  (2319) 
False

$$$$

     RDKit          2D

 17 19  0  0  0  0  0  0  0  0999 V2000
    3.5250    0.1208    0.0000 C   0  0  0  0  0  0  0  0  0  0  0  0
    2.8042   -0.2917    0.0000 C   0  0  0  0  0  0  0  0  0  0  0  0
    3.5250    0.9458    0.0000 C   0  0  0  0  0  0  0  0  0  0  0  0
    2.0917    0.1208    0.0000 C   0  0  0  0  0  0  0  0  0  0  0  0
    2.8042    1.3583    0.0000 O   0  0  0  0  0  0  0  0  0  0  0  0
    2.0917    0.9458    0.0000 C   0  0  0  0  0  0  0  0  0  0  0  0
    4.2375   -0.2917    0.0000 C   0  0  0  0  0  0  0  0  0  0  0  0
    2.8042   -1.1167    0.0000 O   0  0  0  0  0  0  0  0  0  0  0  0
    1.3792   -0.2917    0.0000 C   0  0  0  0  0  0  0  0  0  0  0  0
    1.3792    1.3583    0.0000 C   0  0  0  0  0  0  0  0  0  0  0  0
    4.9500    0.1208    0.0000 C   0  0  0  0  0  0  0  0  0  0  0  0
    4.2375   -1.1167    0.0000 C   0  0  0  0  0  0  0  0  0  0  0  0
    0.6667    0.1208    0.0000 C   0  0  0  0  0  0  0  0  0  0  0  0
    0.6667    0.9458    0.0000 C   0  0  0  0  0  0  0  0  0  0  0  0
    4.9500   -1.5292    0.0000 C   0  0  0  0  0  0  0  0  0  0  0  0
    5.6667   -0.2917    0.0000 C   0  0  0  0  0  0  0  0  0  0  0  0
    5.6667   -1.1167    0.0000 C   0  0  0  0  0  0  0  0  0  0  0  0
  2  1  1  0
  3  1  2  0
  4  2  1  0
  5  3  1  0
  6  5  1  0
  7  1  1  0
  8  2  2  0
  9  4  2  0
 10  6  2  0
 11  7  2  0
 12  7  1  0
 13  9  1  0
 14 10  1  0
 15 12  2  0
 16 11  1  0
 17 15  1  0
  4  6  1  0
 17 16  2  0
 13 14  2  0
M  END
>  <ID>  (2320) 


>  <MOLENAME>  (2320) 
ISOFLAVONE

>  <therap>  (2320) 
nan

>  <ref>  (2320) 
Q Rev Chem Soc 8:67 (1954)

>  <cas#>  (2320) 
574-12-9

>  <source>  (2320) 
clover

>  <status>  (2320) 
nan

>  <tradename>  (2320) 
nan

>  <SMILES>  (2320) 
O=c1c(-c2ccccc2)coc2ccccc12

>  <standardized_failed>  (2320) 
False

$$$$

     RDKit          2D

 17 18  0  0  0  0  0  0  0  0999 V2000
    0.9792   -0.0375    0.0000 C   0  0  0  0  0  0  0  0  0  0  0  0
    0.2667   -0.4542    0.0000 C   0  0  0  0  0  0  0  0  0  0  0  0
    1.6958   -0.4500    0.0000 C   0  0  0  0  0  0  0  0  0  0  0  0
    0.2667   -1.2792    0.0000 O   0  0  0  0  0  0  0  0  0  0  0  0
   -0.4500   -0.0417    0.0000 C   0  0  0  0  0  0  0  0  0  0  0  0
    2.4083   -0.0375    0.0000 C   0  0  0  0  0  0  0  0  0  0  0  0
    3.8375    0.7875    0.0000 C   0  0  0  0  0  0  0  0  0  0  0  0
    3.1250   -0.4500    0.0000 C   0  0  0  0  0  0  0  0  0  0  0  0
    2.4042    0.7833    0.0000 C   0  0  0  0  0  0  0  0  0  0  0  0
    3.1167    1.2000    0.0000 C   0  0  0  0  0  0  0  0  0  0  0  0
    3.8375   -0.0375    0.0000 C   0  0  0  0  0  0  0  0  0  0  0  0
    4.5500    1.2042    0.0000 O   0  0  0  0  0  0  0  0  0  0  0  0
   -0.4500    0.7875    0.0000 C   0  0  0  0  0  0  0  0  0  0  0  0
   -1.1667   -0.4542    0.0000 C   0  0  0  0  0  0  0  0  0  0  0  0
   -1.1667    1.2000    0.0000 C   0  0  0  0  0  0  0  0  0  0  0  0
   -1.8792   -0.0417    0.0000 C   0  0  0  0  0  0  0  0  0  0  0  0
   -1.8792    0.7875    0.0000 C   0  0  0  0  0  0  0  0  0  0  0  0
  2  1  1  0
  3  1  2  0
  4  2  2  0
  5  2  1  0
  6  3  1  0
  7 10  2  0
  8  6  1  0
  9  6  2  0
 10  9  1  0
 11  8  2  0
 12  7  1  0
 13  5  2  0
 14  5  1  0
 15 13  1  0
 16 14  2  0
 17 16  1  0
  7 11  1  0
 17 15  2  0
M  END
>  <ID>  (2321) 


>  <MOLENAME>  (2321) 
4-HYDROXYCHALCONE

>  <therap>  (2321) 
anti-angiogenesis, antineoplastic

>  <ref>  (2321) 
Eur J Pharmacol 691:125 (2012)

>  <cas#>  (2321) 
20426-12-4

>  <source>  (2321) 
nan

>  <status>  (2321) 
experimental

>  <tradename>  (2321) 
nan

>  <SMILES>  (2321) 
O=C(/C=C/c1ccc(O)cc1)c1ccccc1

>  <standardized_failed>  (2321) 
False

$$$$

     RDKit          2D

 24 25  0  0  0  0  0  0  0  0999 V2000
    1.9417   -1.3125    0.0000 C   0  0  0  0  0  0  0  0  0  0  0  0
    2.7667   -1.3125    0.0000 C   0  0  0  0  0  0  0  0  0  0  0  0
    5.6542   -2.0292    0.0000 C   0  0  0  0  0  0  0  0  0  0  0  0
    1.5292   -2.0250    0.0000 C   0  0  0  0  0  0  0  0  0  0  0  0
    5.2417   -2.7417    0.0000 C   0  0  0  0  0  0  0  0  0  0  0  0
    1.5292   -0.6000    0.0000 C   0  0  0  0  0  0  0  0  0  0  0  0
    5.2375   -1.3125    0.0000 C   0  0  0  0  0  0  0  0  0  0  0  0
    6.4792   -2.0292    0.0000 C   0  0  0  0  0  0  0  0  0  0  0  0
    3.1792   -2.0292    0.0000 O   0  0  0  0  0  0  0  0  0  0  0  0
    4.0042   -2.0292    0.0000 C   0  0  0  0  0  0  0  0  0  0  0  0
    4.4167   -2.7417    0.0000 C   0  0  0  0  0  0  0  0  0  0  0  0
    0.7042   -2.0250    0.0000 C   0  0  0  0  0  0  0  0  0  0  0  0
    4.4125   -1.3167    0.0000 C   0  0  0  0  0  0  0  0  0  0  0  0
    0.7042   -0.6042    0.0000 C   0  0  0  0  0  0  0  0  0  0  0  0
    3.1792   -0.6000    0.0000 O   0  0  0  0  0  0  0  0  0  0  0  0
    0.3000   -1.3167    0.0000 C   0  0  0  0  0  0  0  0  0  0  0  0
    6.8917   -1.3125    0.0000 O   0  0  0  0  0  0  0  0  0  0  0  0
    5.6500   -3.4542    0.0000 O   0  0  0  0  0  0  0  0  0  0  0  0
    1.9417   -2.7417    0.0000 O   0  0  0  0  0  0  0  0  0  0  0  0
    6.8917   -2.7417    0.0000 O   0  0  0  0  0  0  0  0  0  0  0  0
   -0.5250   -1.3167    0.0000 O   0  0  0  0  0  0  0  0  0  0  0  0
    5.6417   -0.5917    0.0000 C   0  0  0  0  0  0  0  0  0  0  0  0
    1.9417    0.1125    0.0000 C   0  0  0  0  0  0  0  0  0  0  0  0
   -0.9458   -0.6042    0.0000 C   0  0  0  0  0  0  0  0  0  0  0  0
  2  1  1  0
  3  7  2  0
  4  1  2  0
  5 11  2  0
  6  1  1  0
  7 13  1  0
  8  3  1  0
  9  2  1  0
 10  9  1  0
 11 10  1  0
 12  4  1  0
 13 10  2  0
 14  6  2  0
 15  2  2  0
 16 14  1  0
 17  8  2  0
 18  5  1  0
 19  4  1  0
 20  8  1  0
 21 16  1  0
 22  7  1  0
 23  6  1  0
 24 21  1  0
 12 16  2  0
  5  3  1  0
M  END
>  <ID>  (2322) 


>  <MOLENAME>  (2322) 
EVERNIC ACID

>  <therap>  (2322) 
plant growth regulator

>  <ref>  (2322) 
Monatsh Chem 61: 147 (1932)

>  <cas#>  (2322) 
537-09-7

>  <source>  (2322) 
Evernia spp, Parmelia spp and other lichens

>  <status>  (2322) 
experimental

>  <tradename>  (2322) 
nan

>  <SMILES>  (2322) 
COc1cc(O)c(C(=O)Oc2cc(C)c(C(=O)O)c(O)c2)c(C)c1

>  <standardized_failed>  (2322) 
False

$$$$

     RDKit          2D

 26 27  0  0  0  0  0  0  0  0999 V2000
    1.5167   -3.2458    0.0000 C   0  0  0  0  0  0  0  0  0  0  0  0
    1.5167   -4.0750    0.0000 C   0  0  0  0  0  0  0  0  0  0  0  0
    2.2292   -2.8292    0.0000 C   0  0  0  0  0  0  0  0  0  0  0  0
    0.8000   -4.4875    0.0000 C   0  0  0  0  0  0  0  0  0  0  0  0
    0.8000   -2.8333    0.0000 C   0  0  0  0  0  0  0  0  0  0  0  0
    0.0875   -4.0750    0.0000 C   0  0  0  0  0  0  0  0  0  0  0  0
    5.0833   -1.9958    0.0000 C   0  0  0  0  0  0  0  0  0  0  0  0
    0.0875   -3.2500    0.0000 C   0  0  0  0  0  0  0  0  0  0  0  0
    5.0833   -2.8208    0.0000 C   0  0  0  0  0  0  0  0  0  0  0  0
    4.3625   -1.5875    0.0000 C   0  0  0  0  0  0  0  0  0  0  0  0
    5.7958   -1.5792    0.0000 C   0  0  0  0  0  0  0  0  0  0  0  0
    2.9458   -3.2375    0.0000 O   0  0  0  0  0  0  0  0  0  0  0  0
    3.6583   -2.8250    0.0000 C   0  0  0  0  0  0  0  0  0  0  0  0
    4.3708   -3.2375    0.0000 C   0  0  0  0  0  0  0  0  0  0  0  0
    3.6500   -2.0042    0.0000 C   0  0  0  0  0  0  0  0  0  0  0  0
    2.2250   -2.0042    0.0000 O   0  0  0  0  0  0  0  0  0  0  0  0
    5.7917   -0.7542    0.0000 O   0  0  0  0  0  0  0  0  0  0  0  0
    0.8000   -5.3125    0.0000 Cl  0  0  0  0  0  0  0  0  0  0  0  0
    2.2333   -4.4875    0.0000 O   0  0  0  0  0  0  0  0  0  0  0  0
   -0.6250   -2.8375    0.0000 Cl  0  0  0  0  0  0  0  0  0  0  0  0
   -0.6292   -4.4875    0.0000 O   0  0  0  0  0  0  0  0  0  0  0  0
    5.8000   -3.2333    0.0000 O   0  0  0  0  0  0  0  0  0  0  0  0
    6.5083   -1.9875    0.0000 O   0  0  0  0  0  0  0  0  0  0  0  0
    0.7958   -2.0083    0.0000 C   0  0  0  0  0  0  0  0  0  0  0  0
    4.3542   -0.7625    0.0000 C   0  0  0  0  0  0  0  0  0  0  0  0
   -1.3417   -4.0750    0.0000 C   0  0  0  0  0  0  0  0  0  0  0  0
  2  1  2  0
  3  1  1  0
  4  2  1  0
  5  1  1  0
  6  8  1  0
  7  9  2  0
  8  5  2  0
  9 14  1  0
 10 15  2  0
 11  7  1  0
 12  3  1  0
 13 12  1  0
 14 13  2  0
 15 13  1  0
 16  3  2  0
 17 11  2  0
 18  4  1  0
 19  2  1  0
 20  8  1  0
 21  6  1  0
 22  9  1  0
 23 11  1  0
 24  5  1  0
 25 10  1  0
 26 21  1  0
  4  6  2  0
 10  7  1  0
M  END
>  <ID>  (2323) 


>  <MOLENAME>  (2323) 
DICHLOROEVERNIC ACID

>  <therap>  (2323) 
nan

>  <ref>  (2323) 
nan

>  <cas#>  (2323) 
nan

>  <source>  (2323) 
lichen metabolite

>  <status>  (2323) 
undetermined activity

>  <tradename>  (2323) 
nan

>  <SMILES>  (2323) 
COc1c(Cl)c(O)c(C(=O)Oc2cc(O)c(C(=O)O)c(C)c2)c(C)c1Cl

>  <standardized_failed>  (2323) 
False

$$$$

     RDKit          2D

 11 11  0  0  0  0  0  0  0  0999 V2000
    1.9417    1.7958    0.0000 C   0  0  0  0  0  0  0  0  0  0  0  0
    2.6542    2.2083    0.0000 O   0  0  0  0  0  0  0  0  0  0  0  0
    1.2250    2.2083    0.0000 N   0  0  0  0  0  0  0  0  0  0  0  0
    1.9417    0.9625    0.0000 C   0  0  0  0  0  0  0  0  0  0  0  0
    1.2167    0.5458    0.0000 C   0  0  0  0  0  0  0  0  0  0  0  0
    1.2417    3.0958    0.0000 O   0  0  0  0  0  0  0  0  0  0  0  0
    0.5042    0.9583    0.0000 C   0  0  0  0  0  0  0  0  0  0  0  0
    1.2167   -0.2792    0.0000 C   0  0  0  0  0  0  0  0  0  0  0  0
   -0.2083    0.5458    0.0000 C   0  0  0  0  0  0  0  0  0  0  0  0
    0.5042   -0.6917    0.0000 C   0  0  0  0  0  0  0  0  0  0  0  0
   -0.2083   -0.2792    0.0000 C   0  0  0  0  0  0  0  0  0  0  0  0
  2  1  2  0
  3  1  1  0
  4  1  1  0
  5  4  1  0
  6  3  1  0
  7  5  2  0
  8  5  1  0
  9  7  1  0
 10  8  2  0
 11 10  1  0
  9 11  2  0
M  END
>  <ID>  (2324) 


>  <MOLENAME>  (2324) 
PHENYLACETOHYDROXAMIC ACID

>  <therap>  (2324) 
antiinflammatory

>  <ref>  (2324) 
US Patent 4092430 (May 30, 1978)

>  <cas#>  (2324) 
nan

>  <source>  (2324) 
synthetic

>  <status>  (2324) 
experimental

>  <tradename>  (2324) 
nan

>  <SMILES>  (2324) 
O=C(Cc1ccccc1)NO

>  <standardized_failed>  (2324) 
False

$$$$

     RDKit          2D

 15 16  0  0  0  0  0  0  0  0999 V2000
   -0.7083    0.0083    0.0000 C   0  0  0  0  0  0  0  0  0  0  0  0
   -0.1208    0.4708    0.0000 C   0  0  0  0  0  0  0  0  0  0  0  0
   -1.3500    0.3833    0.0000 C   0  0  0  0  0  0  0  0  0  0  0  0
    0.6042    0.3083    0.0000 C   0  0  0  0  0  0  0  0  0  0  0  0
   -0.7083   -0.7417    0.0000 C   0  0  0  0  0  0  0  0  0  0  0  0
   -2.0000    0.0083    0.0000 C   0  0  0  0  0  0  0  0  0  0  0  0
    0.6042   -1.0417    0.0000 C   0  0  0  0  0  0  0  0  0  0  0  0
    0.9292   -0.3667    0.0000 C   0  0  0  0  0  0  0  0  0  0  0  0
   -0.2833    1.2083    0.0000 O   0  0  0  0  0  0  0  0  0  0  0  0
   -0.1208   -1.2125    0.0000 C   0  0  0  0  0  0  0  0  0  0  0  0
   -1.3500   -1.1167    0.0000 C   0  0  0  0  0  0  0  0  0  0  0  0
   -2.0000   -0.7417    0.0000 C   0  0  0  0  0  0  0  0  0  0  0  0
   -1.3500    1.1333    0.0000 O   0  0  0  0  0  0  0  0  0  0  0  0
    1.0792    0.8958    0.0000 O   0  0  0  0  0  0  0  0  0  0  0  0
   -2.6583    0.3833    0.0000 O   0  0  0  0  0  0  0  0  0  0  0  0
  2  1  1  0
  3  1  2  0
  4  2  1  0
  5  1  1  0
  6  3  1  0
  7 10  2  0
  8  4  2  0
  9  2  2  0
 10  5  1  0
 11  5  2  0
 12 11  1  0
 13  3  1  0
 14  4  1  0
 15  6  1  0
 12  6  2  0
  8  7  1  0
M  END
>  <ID>  (2325) 


>  <MOLENAME>  (2325) 
PYROGALLIN

>  <therap>  (2325) 
antiinfectant

>  <ref>  (2325) 
aq KIO4 + catechol + pyrogallol

>  <cas#>  (2325) 
nan

>  <source>  (2325) 
synthetic

>  <status>  (2325) 
experimental

>  <tradename>  (2325) 
nan

>  <SMILES>  (2325) 
O=c1c(O)cccc2ccc(O)c(O)c12

>  <standardized_failed>  (2325) 
False

$$$$

     RDKit          2D

 11 11  0  0  0  0  0  0  0  0999 V2000
    1.8292    0.0375    0.0000 C   0  0  0  0  0  0  0  0  0  0  0  0
    2.5417   -0.3750    0.0000 C   0  0  0  0  0  0  0  0  0  0  0  0
    1.8250    0.8625    0.0000 C   0  0  0  0  0  0  0  0  0  0  0  0
    2.5417   -1.2042    0.0000 C   0  0  0  0  0  0  0  0  0  0  0  0
    1.1125    1.2708    0.0000 O   0  0  0  0  0  0  0  0  0  0  0  0
    3.2542    0.0458    0.0000 O   0  0  0  0  0  0  0  0  0  0  0  0
    2.5417    1.2750    0.0000 O   0  0  0  0  0  0  0  0  0  0  0  0
    1.1167   -0.3750    0.0000 C   0  0  0  0  0  0  0  0  0  0  0  0
    3.2625   -1.6167    0.0000 O   0  0  0  0  0  0  0  0  0  0  0  0
    1.1167   -1.2042    0.0000 C   0  0  0  0  0  0  0  0  0  0  0  0
    1.8292   -1.6167    0.0000 C   0  0  0  0  0  0  0  0  0  0  0  0
  2  1  2  0
  3  1  1  0
  4  2  1  0
  5  3  2  0
  6  2  1  0
  7  3  1  0
  8  1  1  0
  9  4  1  0
 10  8  2  0
 11 10  1  0
 11  4  2  0
M  END
>  <ID>  (2326) 


>  <MOLENAME>  (2326) 
PYROCATECHUIC ACID

>  <therap>  (2326) 
antioxidant, Fe chelating agent

>  <ref>  (2326) 
Biochim Biophys Acta 201:453 !970); J Pharmacol Exp Therap 190:570 (1974); Trans IRE Professionsl Group 7:414 (2011)

>  <cas#>  (2326) 
303-38-8

>  <source>  (2326) 
Erythraea centaurium, Gentiana lutea

>  <status>  (2326) 
experimental

>  <tradename>  (2326) 
nan

>  <SMILES>  (2326) 
O=C(O)c1c(O)c(O)ccc1

>  <standardized_failed>  (2326) 
False

$$$$

     RDKit          2D

 32 34  0  0  0  0  0  0  0  0999 V2000
    8.3375   -1.2292    0.0000 N   0  0  0  0  0  0  0  0  0  0  0  0
    7.9292   -0.5042    0.0000 C   0  0  0  0  0  0  0  0  0  0  0  0
    7.0292   -1.4917    0.0000 N   0  0  0  0  0  0  0  0  0  0  0  0
    7.1250   -0.6667    0.0000 C   0  0  0  0  0  0  0  0  0  0  0  0
    7.7792   -1.8292    0.0000 C   0  0  0  0  0  0  0  0  0  0  0  0
    2.7292   -3.9167    0.0000 C   0  0  0  0  0  0  0  0  0  0  0  0
    3.4417   -2.6792    0.0000 C   0  0  0  0  0  0  0  0  0  0  0  0
    2.7292   -3.0917    0.0000 C   0  0  0  0  0  0  0  0  0  0  0  0
    8.1917    0.2708    0.0000 C   0  0  0  0  0  0  0  0  0  0  0  0
    6.5792   -0.0542    0.0000 N   0  0  0  0  0  0  0  0  0  0  0  0
    2.0167   -4.3292    0.0000 C   0  0  0  0  0  0  0  0  0  0  0  0
    7.6500    0.8833    0.0000 N   0  0  0  0  0  0  0  0  0  0  0  0
    3.4417   -4.3292    0.0000 C   0  0  0  0  0  0  0  0  0  0  0  0
    3.4500   -1.8542    0.0000 C   0  0  0  0  0  0  0  0  0  0  0  0
    6.3125   -1.8917    0.0000 C   0  0  0  0  0  0  0  0  0  0  0  0
    6.8417    0.7208    0.0000 C   0  0  0  0  0  0  0  0  0  0  0  0
    5.6042   -1.4792    0.0000 C   0  0  0  0  0  0  0  0  0  0  0  0
    4.1542   -3.1042    0.0000 C   0  0  0  0  0  0  0  0  0  0  0  0
    4.8792   -1.8792    0.0000 C   0  0  0  0  0  0  0  0  0  0  0  0
    1.3125   -3.9167    0.0000 C   0  0  0  0  0  0  0  0  0  0  0  0
    4.1542   -3.9292    0.0000 C   0  0  0  0  0  0  0  0  0  0  0  0
   10.5500   -1.0042    0.0000 Cl  0  0  0  0  0  0  0  0  0  0  0  0
    9.1542   -1.3167    0.0000 C   0  0  0  0  0  0  0  0  0  0  0  0
    4.1750   -1.4542    0.0000 C   0  0  0  0  0  0  0  0  0  0  0  0
    9.0042    0.4333    0.0000 N   0  0  0  0  0  0  0  0  0  0  0  0
    2.7250   -4.7417    0.0000 C   0  0  0  0  0  0  0  0  0  0  0  0
    2.0167   -2.6792    0.0000 C   0  0  0  0  0  0  0  0  0  0  0  0
    2.6542   -2.3667    0.0000 C   0  0  0  0  0  0  0  0  0  0  0  0
    1.3125   -3.0917    0.0000 C   0  0  0  0  0  0  0  0  0  0  0  0
    2.0250   -5.1542    0.0000 C   0  0  0  0  0  0  0  0  0  0  0  0
    4.8667   -2.7042    0.0000 C   0  0  0  0  0  0  0  0  0  0  0  0
    4.9792   -3.1042    0.0000 C   0  0  0  0  0  0  0  0  0  0  0  0
  2  1  1  0
  3  5  1  0
  4  2  2  0
  5  1  2  0
  6  8  1  0
  7 14  1  0
  8  7  1  0
  9  2  1  0
 10  4  1  0
 11  6  1  0
 12  9  2  0
 13 21  1  0
 14 24  1  0
 15  3  1  0
 16 12  1  0
 17 15  1  0
 18  7  1  0
 19 17  2  0
 20 29  1  0
 21 18  1  0
 23  1  1  0
 24 19  1  0
 25  9  1  0
  6 26  1  0
  8 27  1  1
  7 28  1  1
 29 27  1  0
 30 11  1  0
 31 19  1  0
 18 32  1  0
  4  3  1  0
 16 10  2  0
  6 13  1  0
 11 20  2  0
M  CHG  2   1   1  22  -1
M  END
>  <ID>  (2327) 


>  <MOLENAME>  (2327) 
AGELASINE

>  <therap>  (2327) 
cytotoxic, antineoplastic

>  <ref>  (2327) 
Can J Chem 53:1690 (1975)

>  <cas#>  (2327) 
nan

>  <source>  (2327) 
Agelas dispar

>  <status>  (2327) 
experimental

>  <tradename>  (2327) 
nan

>  <SMILES>  (2327) 
CC1=CCC[C@@H]2C1(C)CCC(C)[C@@]2(C)CC/C(C)=C/Cn1c[n+](C)c2c1ncnc2N

>  <standardized_failed>  (2327) 
False

$$$$

     RDKit          2D

  6  5  0  0  0  0  0  0  0  0999 V2000
    1.1375   -1.2250    0.0000 C   0  0  0  0  0  0  0  0  0  0  0  0
    0.4250    0.0125    0.0000 C   0  0  0  0  0  0  0  0  0  0  0  0
    1.1375   -0.4000    0.0000 N   0  0  0  0  0  0  0  0  0  0  0  0
    1.8542   -1.6375    0.0000 N   0  0  0  0  0  0  0  0  0  0  0  0
    0.4250    0.8375    0.0000 N   0  0  0  0  0  0  0  0  0  0  0  0
   -0.2875   -0.4000    0.0000 N   0  0  0  0  0  0  0  0  0  0  0  0
  2  3  1  0
  3  1  1  0
  4  1  3  0
  5  2  2  0
  6  2  1  0
M  END
>  <ID>  (2328) 


>  <MOLENAME>  (2328) 
DICYANDIAMIDE

>  <therap>  (2328) 
antibacterial, nitification inhibitor

>  <ref>  (2328) 
J Agri Food Chem 27:1365 (1979); Soil Sci Soc Am J 50:1353 (1986); Fertilizer Res 22:37 (1990), Soil Biol Biochem 42:1425 (2010)

>  <cas#>  (2328) 
461-58-5

>  <source>  (2328) 
synthetic; DCD

>  <status>  (2328) 
experimental

>  <tradename>  (2328) 
ECO-N

>  <SMILES>  (2328) 
N#CNC(=N)N

>  <standardized_failed>  (2328) 
False

$$$$

     RDKit          2D

 19 19  0  0  0  0  0  0  0  0999 V2000
    5.6667   -0.2292    0.0000 N   0  0  0  0  0  0  0  0  0  0  0  0
    2.7167   -0.8667    0.0000 C   0  0  0  0  0  0  0  0  0  0  0  0
    3.5292   -0.7292    0.0000 N   0  0  0  0  0  0  0  0  0  0  0  0
    0.0042   -0.5167    0.0000 C   0  0  0  0  0  0  0  0  0  0  0  0
    3.3292   -2.0542    0.0000 N   0  0  0  0  0  0  0  0  0  0  0  0
    0.2542   -1.3042    0.0000 O   0  0  0  0  0  0  0  0  0  0  0  0
    1.3417   -0.5167    0.0000 C   0  0  0  0  0  0  0  0  0  0  0  0
    2.1292   -0.2917    0.0000 C   0  0  0  0  0  0  0  0  0  0  0  0
    3.9167   -1.4667    0.0000 C   0  0  0  0  0  0  0  0  0  0  0  0
    0.6667   -0.0292    0.0000 C   0  0  0  0  0  0  0  0  0  0  0  0
    2.5917   -1.6917    0.0000 C   0  0  0  0  0  0  0  0  0  0  0  0
    6.2417   -0.5667    0.0000 O   0  0  0  0  0  0  0  0  0  0  0  0
    5.6792    0.4333    0.0000 O   0  0  0  0  0  0  0  0  0  0  0  0
    1.0792   -1.3042    0.0000 C   0  0  0  0  0  0  0  0  0  0  0  0
   -0.7833   -0.2542    0.0000 O   0  0  0  0  0  0  0  0  0  0  0  0
    5.0917   -0.5667    0.0000 O   0  0  0  0  0  0  0  0  0  0  0  0
    3.9042    0.0083    0.0000 C   0  0  0  0  0  0  0  0  0  0  0  0
    0.6667    0.7958    0.0000 C   0  0  0  0  0  0  0  0  0  0  0  0
    1.3667    1.2208    0.0000 C   0  0  0  0  0  0  0  0  0  0  0  0
  3  2  1  0
  4 10  1  0
  5 11  1  0
  6 14  1  0
  7  8  1  1
  8  2  1  0
  9  3  1  0
 10  7  1  0
 11  2  2  0
 12  1  1  0
 13  1  2  0
 14  7  1  0
 15  4  2  0
 16  1  1  0
 17  3  1  0
 10 18  1  6
 19 18  1  0
  9  5  2  0
  6  4  1  0
M  CHG  2   1   1  12  -1
M  END
>  <ID>  (2329) 


>  <MOLENAME>  (2329) 
ISOPILOCARPINE NITRATE

>  <therap>  (2329) 
miotic

>  <ref>  (2329) 
J Nat Prod 55:194 (1992)

>  <cas#>  (2329) 
531-35-1 (base)

>  <source>  (2329) 
semisynthetic

>  <status>  (2329) 
experimental

>  <tradename>  (2329) 
nan

>  <SMILES>  (2329) 
CC[C@H]1C(=O)OC[C@@H]1Cc1cncn1C

>  <standardized_failed>  (2329) 
False

$$$$

     RDKit          2D

 23 25  0  0  0  0  0  0  0  0999 V2000
    2.7917   -2.7542    0.0000 C   0  0  0  0  0  0  0  0  0  0  0  0
    3.5125   -3.1667    0.0000 C   0  0  0  0  0  0  0  0  0  0  0  0
    4.2167   -1.9250    0.0000 C   0  0  0  0  0  0  0  0  0  0  0  0
    4.2250   -2.7542    0.0000 C   0  0  0  0  0  0  0  0  0  0  0  0
    2.7917   -1.9292    0.0000 C   0  0  0  0  0  0  0  0  0  0  0  0
    3.5042   -1.5167    0.0000 O   0  0  0  0  0  0  0  0  0  0  0  0
    2.0792   -3.1750    0.0000 C   0  0  0  0  0  0  0  0  0  0  0  0
    2.0792   -1.5167    0.0000 C   0  0  0  0  0  0  0  0  0  0  0  0
    1.3667   -2.7625    0.0000 C   0  0  0  0  0  0  0  0  0  0  0  0
    4.9292   -1.5042    0.0000 C   0  0  0  0  0  0  0  0  0  0  0  0
    1.3667   -1.9375    0.0000 C   0  0  0  0  0  0  0  0  0  0  0  0
    3.5125   -3.9917    0.0000 O   0  0  0  0  0  0  0  0  0  0  0  0
    4.9250   -0.6875    0.0000 C   0  0  0  0  0  0  0  0  0  0  0  0
    5.6417   -1.9167    0.0000 C   0  0  0  0  0  0  0  0  0  0  0  0
    2.0792   -4.0000    0.0000 O   0  0  0  0  0  0  0  0  0  0  0  0
    6.3542   -0.6792    0.0000 C   0  0  0  0  0  0  0  0  0  0  0  0
    5.6292   -0.2667    0.0000 C   0  0  0  0  0  0  0  0  0  0  0  0
    6.3542   -1.5042    0.0000 C   0  0  0  0  0  0  0  0  0  0  0  0
    0.6542   -1.5250    0.0000 O   0  0  0  0  0  0  0  0  0  0  0  0
    7.0667   -0.2542    0.0000 O   0  0  0  0  0  0  0  0  0  0  0  0
    2.8000   -4.4125    0.0000 C   0  0  0  0  0  0  0  0  0  0  0  0
    0.6542   -0.7000    0.0000 C   0  0  0  0  0  0  0  0  0  0  0  0
    7.7792   -0.6667    0.0000 C   0  0  0  0  0  0  0  0  0  0  0  0
  2  1  1  0
  3  6  1  0
  4  2  1  0
  5  1  2  0
  6  5  1  0
  7  1  1  0
  8  5  1  0
  9  7  2  0
 10  3  1  0
 11  9  1  0
 12  2  2  0
 13 10  2  0
 14 10  1  0
 15  7  1  0
 16 18  1  0
 17 13  1  0
 18 14  2  0
 19 11  1  0
 20 16  1  0
 21 15  1  0
 22 19  1  0
 23 20  1  0
  4  3  2  0
  8 11  2  0
 17 16  2  0
M  END
>  <ID>  (2330) 


>  <MOLENAME>  (2330) 
5.7.4'-TRIMETHOXYFLAVONE

>  <therap>  (2330) 
vasodilator

>  <ref>  (2330) 
Phytochemistry 22:625 (1983); Asian Pacific J Cancer Prev 10:695 (2009); Int J Pharmacol 6:419 (2010)

>  <cas#>  (2330) 
5631-70-9

>  <source>  (2330) 
Cassia siamia, Citrus reticulata

>  <status>  (2330) 
experimental

>  <tradename>  (2330) 
nan

>  <SMILES>  (2330) 
COc1ccc(-c2cc(=O)c3c(cc(OC)cc3OC)o2)cc1

>  <standardized_failed>  (2330) 
False

$$$$

     RDKit          2D

 44 49  0  0  0  0  0  0  0  0999 V2000
    2.0500   -1.3167    0.0000 C   0  0  0  0  0  0  0  0  0  0  0  0
    1.3375   -1.5417    0.0000 N   0  0  0  0  0  0  0  0  0  0  0  0
    2.0500   -0.5667    0.0000 C   0  0  0  0  0  0  0  0  0  0  0  0
    3.3417   -3.5667    0.0000 C   0  0  0  0  0  0  0  0  0  0  0  0
    3.3417   -2.8167    0.0000 C   0  0  0  0  0  0  0  0  0  0  0  0
    2.6917   -1.6917    0.0000 C   0  0  0  0  0  0  0  0  0  0  0  0
    3.3417   -1.3167    0.0000 N   0  0  0  0  0  0  0  0  0  0  0  0
    0.9000   -0.9292    0.0000 C   0  0  0  0  0  0  0  0  0  0  0  0
    1.3375   -0.3417    0.0000 C   0  0  0  0  0  0  0  0  0  0  0  0
    3.9917   -2.4417    0.0000 C   0  0  0  0  0  0  0  0  0  0  0  0
    4.6417   -3.5667    0.0000 C   0  0  0  0  0  0  0  0  0  0  0  0
    5.9500   -3.5667    0.0000 C   0  0  0  0  0  0  0  0  0  0  0  0
    2.6917   -2.4417    0.0000 C   0  0  0  0  0  0  0  0  0  0  0  0
    3.9917   -3.9417    0.0000 C   0  0  0  0  0  0  0  0  0  0  0  0
    6.5792   -3.9667    0.0000 C   0  0  0  0  0  0  0  0  0  0  0  0
    7.8417   -4.7667    0.0000 C   0  0  0  0  0  0  0  0  0  0  0  0
    2.6917   -3.9542    0.0000 C   0  0  0  0  0  0  0  0  0  0  0  0
    5.3042   -3.9417    0.0000 O   0  0  0  0  0  0  0  0  0  0  0  0
    3.9917   -1.6917    0.0000 C   0  0  0  0  0  0  0  0  0  0  0  0
    7.1792   -5.1167    0.0000 C   0  0  0  0  0  0  0  0  0  0  0  0
    7.8792   -4.0167    0.0000 C   0  0  0  0  0  0  0  0  0  0  0  0
    4.6417   -2.8167    0.0000 C   0  0  0  0  0  0  0  0  0  0  0  0
    2.6917   -0.1917    0.0000 C   0  0  0  0  0  0  0  0  0  0  0  0
    6.5500   -4.7167    0.0000 C   0  0  0  0  0  0  0  0  0  0  0  0
    7.2417   -3.6167    0.0000 C   0  0  0  0  0  0  0  0  0  0  0  0
    0.1542   -0.8542    0.0000 C   0  0  0  0  0  0  0  0  0  0  0  0
    1.0292    0.3458    0.0000 C   0  0  0  0  0  0  0  0  0  0  0  0
    3.3417   -0.5667    0.0000 C   0  0  0  0  0  0  0  0  0  0  0  0
    6.0167   -2.7792    0.0000 O   0  0  0  0  0  0  0  0  0  0  0  0
    2.0375   -3.5792    0.0000 O   0  0  0  0  0  0  0  0  0  0  0  0
   -0.1583   -0.1667    0.0000 C   0  0  0  0  0  0  0  0  0  0  0  0
    8.4792   -5.1667    0.0000 O   0  0  0  0  0  0  0  0  0  0  0  0
    0.2875    0.4333    0.0000 C   0  0  0  0  0  0  0  0  0  0  0  0
    3.9792   -4.6917    0.0000 O   0  0  0  0  0  0  0  0  0  0  0  0
    2.6917   -4.7042    0.0000 O   0  0  0  0  0  0  0  0  0  0  0  0
    8.5417   -3.6792    0.0000 O   0  0  0  0  0  0  0  0  0  0  0  0
    7.1500   -5.8667    0.0000 O   0  0  0  0  0  0  0  0  0  0  0  0
   -0.9083   -0.0917    0.0000 O   0  0  0  0  0  0  0  0  0  0  0  0
    8.4417   -5.9167    0.0000 C   0  0  0  0  0  0  0  0  0  0  0  0
    4.6250   -5.0667    0.0000 C   0  0  0  0  0  0  0  0  0  0  0  0
    9.1792   -4.0792    0.0000 C   0  0  0  0  0  0  0  0  0  0  0  0
    3.3417   -5.0792    0.0000 C   0  0  0  0  0  0  0  0  0  0  0  0
    6.4792   -6.2167    0.0000 C   0  0  0  0  0  0  0  0  0  0  0  0
   -1.2083    0.5958    0.0000 C   0  0  0  0  0  0  0  0  0  0  0  0
  2  1  1  0
  3  1  2  0
  4  5  1  0
  5 13  1  1
  6  1  1  0
  7  6  1  0
  8  2  1  0
  9  3  1  0
 10  5  1  0
 11 22  1  0
 12 18  1  0
  6 13  1  1
 14  4  1  0
 15 12  1  0
 16 21  2  0
  4 17  1  1
 11 18  1  1
 19  7  1  0
 20 24  2  0
 21 25  1  0
 10 22  1  1
 23  3  1  0
 24 15  1  0
 25 15  2  0
 26  8  2  0
 27  9  2  0
 28  7  1  0
 29 12  2  0
 30 17  2  0
 31 26  1  0
 32 16  1  0
 33 27  1  0
 14 34  1  6
 35 17  1  0
 36 21  1  0
 37 20  1  0
 38 31  1  0
 39 32  1  0
 40 34  1  0
 41 36  1  0
 42 35  1  0
 43 37  1  0
 44 38  1  0
  9  8  1  0
 28 23  1  0
 10 19  1  0
 33 31  2  0
 14 11  1  0
 20 16  1  0
M  END
>  <ID>  (2331) 


>  <MOLENAME>  (2331) 
ISORESERPINE

>  <therap>  (2331) 
antineoplastic, antihypertensive

>  <ref>  (2331) 
Biochem Biophys Res Commun 387:444 (2009)

>  <cas#>  (2331) 
482-85-9

>  <source>  (2331) 
semisynthetic

>  <status>  (2331) 
experimental

>  <tradename>  (2331) 
nan

>  <SMILES>  (2331) 
COC(=O)[C@H]1[C@H]2C[C@H]3c4c(CCN3C[C@H]2C[C@@H](OC(=O)c2cc(OC)c(OC)c(OC)c2)[C@@H]1OC)c1ccc(OC)cc1[nH]4

>  <standardized_failed>  (2331) 
False

$$$$

     RDKit          2D

 12 12  0  0  0  0  0  0  0  0999 V2000
    3.2292   -3.5792    0.0000 C   0  0  0  0  0  0  0  0  0  0  0  0
    2.8167   -4.2917    0.0000 O   0  0  0  0  0  0  0  0  0  0  0  0
    4.0500   -3.5792    0.0000 O   0  0  0  0  0  0  0  0  0  0  0  0
    0.7625   -2.1542    0.0000 C   0  0  0  0  0  0  0  0  0  0  0  0
    2.8167   -2.8667    0.0000 C   0  0  0  0  0  0  0  0  0  0  0  0
    1.9917   -2.8667    0.0000 C   0  0  0  0  0  0  0  0  0  0  0  0
    1.5792   -2.1542    0.0000 C   0  0  0  0  0  0  0  0  0  0  0  0
    0.3500   -2.8667    0.0000 C   0  0  0  0  0  0  0  0  0  0  0  0
    0.3500   -1.4417    0.0000 C   0  0  0  0  0  0  0  0  0  0  0  0
   -0.4750   -2.8667    0.0000 C   0  0  0  0  0  0  0  0  0  0  0  0
   -0.4750   -1.4417    0.0000 C   0  0  0  0  0  0  0  0  0  0  0  0
   -0.8833   -2.1542    0.0000 C   0  0  0  0  0  0  0  0  0  0  0  0
  2  1  2  0
  3  1  1  0
  4  7  1  0
  5  1  1  0
  6  5  1  0
  7  6  1  0
  8  4  2  0
  9  4  1  0
 10  8  1  0
 11  9  2  0
 12 11  1  0
 10 12  2  0
M  END
>  <ID>  (2332) 


>  <MOLENAME>  (2332) 
4-PHENYLBUTYRIC ACID

>  <therap>  (2332) 
antiinflammatory, antidiabetic

>  <ref>  (2332) 
Toxicol Appl Pharmacol 246:49 (2010); World J Gastroenterol 18:79 (2012)

>  <cas#>  (2332) 
1821-12-1, 1716-12-7 [sodium phenylbutyrate]

>  <source>  (2332) 
synthetic

>  <status>  (2332) 
experimental

>  <tradename>  (2332) 
nan

>  <SMILES>  (2332) 
O=C(O)CCCc1ccccc1

>  <standardized_failed>  (2332) 
False

$$$$

     RDKit          2D

 35 38  0  0  0  0  0  0  0  0999 V2000
    6.7292   -1.6542    0.0000 C   0  0  0  0  0  0  0  0  0  0  0  0
    4.5792   -2.8792    0.0000 C   0  0  0  0  0  0  0  0  0  0  0  0
    4.5792   -3.7042    0.0000 C   0  0  0  0  0  0  0  0  0  0  0  0
    6.7167   -2.4792    0.0000 C   0  0  0  0  0  0  0  0  0  0  0  0
    5.2917   -2.4667    0.0000 C   0  0  0  0  0  0  0  0  0  0  0  0
    6.0042   -2.8792    0.0000 C   0  0  0  0  0  0  0  0  0  0  0  0
    7.5167   -1.4167    0.0000 C   0  0  0  0  0  0  0  0  0  0  0  0
    5.2917   -4.1167    0.0000 C   0  0  0  0  0  0  0  0  0  0  0  0
    6.0167   -1.2292    0.0000 C   0  0  0  0  0  0  0  0  0  0  0  0
    6.0042   -3.7042    0.0000 C   0  0  0  0  0  0  0  0  0  0  0  0
    5.3042   -1.6417    0.0000 C   0  0  0  0  0  0  0  0  0  0  0  0
    7.4917   -2.7417    0.0000 C   0  0  0  0  0  0  0  0  0  0  0  0
    3.8667   -2.4542    0.0000 C   0  0  0  0  0  0  0  0  0  0  0  0
    7.9917   -2.0917    0.0000 C   0  0  0  0  0  0  0  0  0  0  0  0
    1.7292   -3.7042    0.0000 C   0  0  0  0  0  0  0  0  0  0  0  0
    3.8667   -4.1042    0.0000 C   0  0  0  0  0  0  0  0  0  0  0  0
   -0.4125   -4.1125    0.0000 C   0  0  0  0  0  0  0  0  0  0  0  0
    2.4417   -4.1167    0.0000 O   0  0  0  0  0  0  0  0  0  0  0  0
    3.1542   -3.7042    0.0000 C   0  0  0  0  0  0  0  0  0  0  0  0
    1.7292   -2.8792    0.0000 O   0  0  0  0  0  0  0  0  0  0  0  0
   -1.1333   -3.7000    0.0000 O   0  0  0  0  0  0  0  0  0  0  0  0
    7.9167   -0.7042    0.0000 C   0  0  0  0  0  0  0  0  0  0  0  0
    3.1542   -2.8792    0.0000 C   0  0  0  0  0  0  0  0  0  0  0  0
    1.0167   -4.1167    0.0000 C   0  0  0  0  0  0  0  0  0  0  0  0
    0.3000   -3.7000    0.0000 C   0  0  0  0  0  0  0  0  0  0  0  0
    6.7292   -0.8292    0.0000 C   0  0  0  0  0  0  0  0  0  0  0  0
    4.5792   -2.0542    0.0000 C   0  0  0  0  0  0  0  0  0  0  0  0
   -0.4208   -4.9375    0.0000 O   0  0  0  0  0  0  0  0  0  0  0  0
    9.1667   -1.4042    0.0000 C   0  0  0  0  0  0  0  0  0  0  0  0
    8.7417   -0.6917    0.0000 C   0  0  0  0  0  0  0  0  0  0  0  0
    7.5042    0.0083    0.0000 C   0  0  0  0  0  0  0  0  0  0  0  0
    9.9917   -1.3917    0.0000 C   0  0  0  0  0  0  0  0  0  0  0  0
   10.4042   -2.1042    0.0000 C   0  0  0  0  0  0  0  0  0  0  0  0
   10.0042   -2.8167    0.0000 C   0  0  0  0  0  0  0  0  0  0  0  0
   11.2292   -2.0917    0.0000 C   0  0  0  0  0  0  0  0  0  0  0  0
  2  5  1  0
  3  2  1  0
  4  1  1  0
  5 11  1  0
  6  4  1  0
  7  1  1  0
  8 10  1  0
  9  1  1  0
 10  6  1  0
 11  9  1  0
 12  4  1  0
 13  2  1  0
 14  7  1  0
 15 18  1  0
 16  3  1  0
 17 25  1  0
 19 18  1  1
 19 23  1  0
 20 15  2  0
 21 17  2  0
  7 22  1  1
 23 13  1  0
 24 15  1  0
 25 24  1  0
  1 26  1  1
  2 27  1  1
 28 17  1  0
 29 30  1  0
 30 22  1  0
 31 22  1  0
 32 29  1  0
 33 32  1  0
 34 33  1  0
 35 33  1  0
 12 14  1  0
  6  5  1  0
  3  8  2  0
 16 19  1  0
M  END
>  <ID>  (2333) 


>  <MOLENAME>  (2333) 
CHOLESTERYL HEMISUCCINATE

>  <therap>  (2333) 
membrane stabilizer

>  <ref>  (2333) 
Int J Pharm 300:38 (2005)

>  <cas#>  (2333) 
1510-21-0

>  <source>  (2333) 
animal tissue; derivative

>  <status>  (2333) 
experimental

>  <tradename>  (2333) 
nan

>  <SMILES>  (2333) 
CC(C)CCCC(C)[C@H]1CCC2C3CC=C4C[C@@H](OC(=O)CCC(=O)O)CC[C@]4(C)C3CC[C@@]21C

>  <standardized_failed>  (2333) 
False

$$$$

     RDKit          2D

 33 38  0  0  0  0  0  0  0  0999 V2000
    4.4625   -1.9625    0.0000 C   0  0  0  0  0  0  0  0  0  0  0  0
    4.4625   -2.7125    0.0000 C   0  0  0  0  0  0  0  0  0  0  0  0
    3.8125   -3.0875    0.0000 C   0  0  0  0  0  0  0  0  0  0  0  0
    5.1125   -1.5875    0.0000 C   0  0  0  0  0  0  0  0  0  0  0  0
    5.7750   -1.9292    0.0000 C   0  0  0  0  0  0  0  0  0  0  0  0
    2.5083   -3.0875    0.0000 C   0  0  0  0  0  0  0  0  0  0  0  0
    4.4500   -1.3042    0.0000 O   0  0  0  0  0  0  0  0  0  0  0  0
    5.8000   -1.3125    0.0000 C   0  0  0  0  0  0  0  0  0  0  0  0
    3.1625   -2.7125    0.0000 C   0  0  0  0  0  0  0  0  0  0  0  0
    2.5083   -3.8375    0.0000 C   0  0  0  0  0  0  0  0  0  0  0  0
    1.8625   -4.2125    0.0000 C   0  0  0  0  0  0  0  0  0  0  0  0
    3.8125   -1.5875    0.0000 C   0  0  0  0  0  0  0  0  0  0  0  0
    5.1500   -0.6875    0.0000 C   0  0  0  0  0  0  0  0  0  0  0  0
    5.1125   -3.0875    0.0000 C   0  0  0  0  0  0  0  0  0  0  0  0
    3.8125   -3.8375    0.0000 C   0  0  0  0  0  0  0  0  0  0  0  0
    1.2125   -3.8375    0.0000 C   0  0  0  0  0  0  0  0  0  0  0  0
    5.7625   -2.7125    0.0000 C   0  0  0  0  0  0  0  0  0  0  0  0
    1.8625   -2.7125    0.0000 C   0  0  0  0  0  0  0  0  0  0  0  0
    3.1625   -1.9625    0.0000 C   0  0  0  0  0  0  0  0  0  0  0  0
    3.1625   -4.2125    0.0000 C   0  0  0  0  0  0  0  0  0  0  0  0
    6.5375   -1.5250    0.0000 C   0  0  0  0  0  0  0  0  0  0  0  0
    5.8917   -0.8417    0.0000 O   0  0  0  0  0  0  0  0  0  0  0  0
    1.2125   -3.0875    0.0000 C   0  0  0  0  0  0  0  0  0  0  0  0
    5.8917   -0.3417    0.0000 C   0  0  0  0  0  0  0  0  0  0  0  0
    6.5750   -0.6250    0.0000 C   0  0  0  0  0  0  0  0  0  0  0  0
    0.5625   -4.2125    0.0000 O   0  0  0  0  0  0  0  0  0  0  0  0
    4.4625   -3.4625    0.0000 C   0  0  0  0  0  0  0  0  0  0  0  0
    3.8042   -2.5625    0.0000 C   0  0  0  0  0  0  0  0  0  0  0  0
    2.4917   -2.4625    0.0000 C   0  0  0  0  0  0  0  0  0  0  0  0
    1.4000   -4.5250    0.0000 C   0  0  0  0  0  0  0  0  0  0  0  0
    2.3375   -4.5250    0.0000 C   0  0  0  0  0  0  0  0  0  0  0  0
    4.5000   -0.3125    0.0000 C   0  0  0  0  0  0  0  0  0  0  0  0
    5.8917    0.4083    0.0000 C   0  0  0  0  0  0  0  0  0  0  0  0
  2  1  1  0
  3  2  1  0
  4  1  1  0
  5  4  1  0
  6  9  1  0
  1  7  1  0
  8  7  1  0
  9 19  1  0
 10  6  1  0
 11 10  1  0
  1 12  1  6
 13  4  1  0
 14  2  1  0
 15  3  1  0
 16 23  1  0
  5 17  1  1
 18  6  1  0
 19 12  1  0
 20 15  1  0
 21  5  1  0
 22  8  2  0
 23 18  1  0
 24 13  1  0
 25 24  1  0
 26 16  2  0
  2 27  1  6
  3 28  1  1
  6 29  1  1
 30 11  1  0
 31 11  1  0
 32 13  1  0
 33 24  1  0
  5  8  1  0
  3  9  1  0
 14 17  1  0
 21 25  1  0
 10 20  1  0
 11 16  1  0
M  END
>  <ID>  (2334) 


>  <MOLENAME>  (2334) 
3-OXOURSAN(28-13)OLIDE

>  <therap>  (2334) 
nan

>  <ref>  (2334) 
nan

>  <cas#>  (2334) 
nan

>  <source>  (2334) 
semisynthetic

>  <status>  (2334) 
undetermined activity

>  <tradename>  (2334) 
nan

>  <SMILES>  (2334) 
CC1CC[C@@]23CC[C@]4(C)[C@@](CCC5[C@@]6(C)CCC(=O)C(C)(C)C6CC[C@]54C)(OC2=O)C3C1C

>  <standardized_failed>  (2334) 
False

$$$$

     RDKit          2D

 36 41  0  0  0  0  0  0  0  0999 V2000
    7.3625   -3.4292    0.0000 C   0  0  0  0  0  0  0  0  0  0  0  0
    7.3625   -4.1792    0.0000 C   0  0  0  0  0  0  0  0  0  0  0  0
    6.7125   -4.5542    0.0000 C   0  0  0  0  0  0  0  0  0  0  0  0
    8.0125   -3.0542    0.0000 C   0  0  0  0  0  0  0  0  0  0  0  0
    8.6750   -3.4000    0.0000 C   0  0  0  0  0  0  0  0  0  0  0  0
    5.4125   -4.5542    0.0000 C   0  0  0  0  0  0  0  0  0  0  0  0
    7.3500   -2.7750    0.0000 O   0  0  0  0  0  0  0  0  0  0  0  0
    8.6042   -2.7792    0.0000 C   0  0  0  0  0  0  0  0  0  0  0  0
    6.0625   -4.1792    0.0000 C   0  0  0  0  0  0  0  0  0  0  0  0
    5.4125   -5.3042    0.0000 C   0  0  0  0  0  0  0  0  0  0  0  0
    4.7625   -5.6792    0.0000 C   0  0  0  0  0  0  0  0  0  0  0  0
    4.1125   -5.3042    0.0000 C   0  0  0  0  0  0  0  0  0  0  0  0
    6.7125   -3.0542    0.0000 C   0  0  0  0  0  0  0  0  0  0  0  0
    8.0500   -2.1542    0.0000 C   0  0  0  0  0  0  0  0  0  0  0  0
    8.0125   -4.5542    0.0000 C   0  0  0  0  0  0  0  0  0  0  0  0
    6.7125   -5.3042    0.0000 C   0  0  0  0  0  0  0  0  0  0  0  0
    8.6625   -4.1792    0.0000 C   0  0  0  0  0  0  0  0  0  0  0  0
    4.7625   -4.1792    0.0000 C   0  0  0  0  0  0  0  0  0  0  0  0
    6.0625   -3.4292    0.0000 C   0  0  0  0  0  0  0  0  0  0  0  0
    6.0625   -5.6792    0.0000 C   0  0  0  0  0  0  0  0  0  0  0  0
    9.4375   -2.9917    0.0000 C   0  0  0  0  0  0  0  0  0  0  0  0
    3.4625   -5.6792    0.0000 O   0  0  0  0  0  0  0  0  0  0  0  0
    2.8125   -5.3042    0.0000 C   0  0  0  0  0  0  0  0  0  0  0  0
    8.9792   -2.4917    0.0000 O   0  0  0  0  0  0  0  0  0  0  0  0
    4.1125   -4.5542    0.0000 C   0  0  0  0  0  0  0  0  0  0  0  0
    8.7917   -1.8125    0.0000 C   0  0  0  0  0  0  0  0  0  0  0  0
    9.4750   -2.0917    0.0000 C   0  0  0  0  0  0  0  0  0  0  0  0
    2.8125   -4.5542    0.0000 O   0  0  0  0  0  0  0  0  0  0  0  0
    7.3625   -4.9292    0.0000 C   0  0  0  0  0  0  0  0  0  0  0  0
    6.7042   -4.0292    0.0000 C   0  0  0  0  0  0  0  0  0  0  0  0
    5.3917   -3.9292    0.0000 C   0  0  0  0  0  0  0  0  0  0  0  0
    4.3000   -5.9917    0.0000 C   0  0  0  0  0  0  0  0  0  0  0  0
    5.2375   -5.9917    0.0000 C   0  0  0  0  0  0  0  0  0  0  0  0
    7.4000   -1.7792    0.0000 C   0  0  0  0  0  0  0  0  0  0  0  0
    2.1625   -5.6792    0.0000 C   0  0  0  0  0  0  0  0  0  0  0  0
    8.7917   -1.0625    0.0000 C   0  0  0  0  0  0  0  0  0  0  0  0
  2  1  1  0
  3  2  1  0
  4  1  1  0
  5  4  1  0
  6  9  1  0
  1  7  1  0
  8  7  1  0
  9 19  1  0
 10  6  1  0
 11 10  1  0
 12 25  1  0
  1 13  1  6
 14  4  1  0
 15  2  1  0
 16  3  1  0
  5 17  1  1
 18  6  1  0
 19 13  1  0
 20 16  1  0
 21  5  1  0
 22 12  1  0
 23 22  1  0
 24  8  2  0
 25 18  1  0
 26 14  1  0
 27 26  1  0
 28 23  2  0
  2 29  1  6
  3 30  1  1
  6 31  1  1
 32 11  1  0
 33 11  1  0
 34 14  1  0
 35 23  1  0
 36 26  1  0
  5  8  1  0
  3  9  1  0
 15 17  1  0
 21 27  1  0
 10 20  1  0
 11 12  1  0
M  END
>  <ID>  (2335) 


>  <MOLENAME>  (2335) 
URSOLOLACTONE

>  <therap>  (2335) 
antispasmotic

>  <ref>  (2335) 
Phytochem 14:584 (1975); Chem Pharm Bull  31:1567(1983); J Nat Prod 63:1265 (2000)

>  <cas#>  (2335) 
28290-51-9

>  <source>  (2335) 
Pieris japonica, Helichrysum italicum, Euclea natalensis, Eucalyptus spp 

>  <status>  (2335) 
experimental

>  <tradename>  (2335) 
nan

>  <SMILES>  (2335) 
CC(=O)OC1CC[C@@]2(C)C(CC[C@]3(C)C2CC[C@]24OC(=O)[C@@]5(CCC(C)C(C)C52)CC[C@]43C)C1(C)C

>  <standardized_failed>  (2335) 
False

$$$$

     RDKit          2D

 26 30  0  0  0  0  0  0  0  0999 V2000
    6.0667   -1.7542    0.0000 N   0  0  0  0  0  0  0  0  0  0  0  0
    7.5042   -1.7667    0.0000 C   0  0  0  0  0  0  0  0  0  0  0  0
    6.0667   -2.5792    0.0000 C   0  0  0  0  0  0  0  0  0  0  0  0
    6.7792   -3.0042    0.0000 C   0  0  0  0  0  0  0  0  0  0  0  0
    5.3542   -2.9917    0.0000 C   0  0  0  0  0  0  0  0  0  0  0  0
    7.4917   -2.6042    0.0000 C   0  0  0  0  0  0  0  0  0  0  0  0
    6.7917   -1.3417    0.0000 C   0  0  0  0  0  0  0  0  0  0  0  0
    8.2292   -1.3667    0.0000 C   0  0  0  0  0  0  0  0  0  0  0  0
    4.6417   -2.5667    0.0000 C   0  0  0  0  0  0  0  0  0  0  0  0
    5.3417   -3.8167    0.0000 C   0  0  0  0  0  0  0  0  0  0  0  0
    3.9167   -2.9792    0.0000 C   0  0  0  0  0  0  0  0  0  0  0  0
    3.9292   -3.8167    0.0000 C   0  0  0  0  0  0  0  0  0  0  0  0
    6.7792   -3.8167    0.0000 C   0  0  0  0  0  0  0  0  0  0  0  0
    4.6417   -4.2167    0.0000 C   0  0  0  0  0  0  0  0  0  0  0  0
    8.2042   -3.0167    0.0000 C   0  0  0  0  0  0  0  0  0  0  0  0
    8.9417   -1.7917    0.0000 C   0  0  0  0  0  0  0  0  0  0  0  0
    8.4167   -0.5542    0.0000 O   0  0  0  0  0  0  0  0  0  0  0  0
    3.1292   -2.7292    0.0000 O   0  0  0  0  0  0  0  0  0  0  0  0
    3.1417   -4.0792    0.0000 O   0  0  0  0  0  0  0  0  0  0  0  0
    9.5667   -1.2417    0.0000 O   0  0  0  0  0  0  0  0  0  0  0  0
    9.2417   -0.4792    0.0000 C   0  0  0  0  0  0  0  0  0  0  0  0
    2.6417   -3.4042    0.0000 C   0  0  0  0  0  0  0  0  0  0  0  0
    6.0542   -4.2292    0.0000 C   0  0  0  0  0  0  0  0  0  0  0  0
    8.9292   -2.6167    0.0000 C   0  0  0  0  0  0  0  0  0  0  0  0
    3.6167   -1.1542    0.0000 Cl  0  0  0  0  0  0  0  0  0  0  0  0
    5.3542   -1.3292    0.0000 C   0  0  0  0  0  0  0  0  0  0  0  0
  2  7  2  0
  3  1  2  0
  4  3  1  0
  5  3  1  0
  6  2  1  0
  7  1  1  0
  8  2  1  0
  9  5  2  0
 10  5  1  0
 11  9  1  0
 12 14  1  0
 13  4  1  0
 14 10  2  0
 15  6  1  0
 16  8  2  0
 17  8  1  0
 18 11  1  0
 19 12  1  0
 20 16  1  0
 21 17  1  0
 22 18  1  0
 23 10  1  0
 24 15  2  0
 26  1  1  0
  4  6  2  0
 13 23  2  0
 16 24  1  0
 21 20  1  0
 11 12  2  0
 19 22  1  0
M  CHG  2   1   1  25  -1
M  END
>  <ID>  (2336) 


>  <MOLENAME>  (2336) 
SANGUINARIUM CHLORIDE

>  <therap>  (2336) 
antineoplastic, antiplaque agent

>  <ref>  (2336) 
J Heterocyclic Chem 9: 1453 (1972); J Biol Chem 280:19078 (2005); FEBS J 273:2139 (2006)

>  <cas#>  (2336) 
5578-73-4

>  <source>  (2336) 
Sanguinaria canadensis

>  <status>  (2336) 
USAN, INN

>  <tradename>  (2336) 
VIADENT

>  <SMILES>  (2336) 
C[n+]1c2c3cc4c(cc3ccc2c2ccc3c(OCO3)c2c1)OCO4

>  <standardized_failed>  (2336) 
False

$$$$

     RDKit          2D

 31 32  0  0  0  0  0  0  0  0999 V2000
    1.8542   -2.3667    0.0000 C   0  0  0  0  0  0  0  0  0  0  0  0
    1.8500   -3.1917    0.0000 C   0  0  0  0  0  0  0  0  0  0  0  0
    1.1417   -1.9500    0.0000 C   0  0  0  0  0  0  0  0  0  0  0  0
    0.4292   -3.1917    0.0000 C   0  0  0  0  0  0  0  0  0  0  0  0
    1.1417   -3.6000    0.0000 C   0  0  0  0  0  0  0  0  0  0  0  0
    0.4292   -2.3667    0.0000 C   0  0  0  0  0  0  0  0  0  0  0  0
    2.5667   -1.9542    0.0000 O   0  0  0  0  0  0  0  0  0  0  0  0
    2.5625   -3.6042    0.0000 C   0  0  0  0  0  0  0  0  0  0  0  0
    3.2792   -2.3667    0.0000 C   0  0  0  0  0  0  0  0  0  0  0  0
    3.2792   -3.1917    0.0000 C   0  0  0  0  0  0  0  0  0  0  0  0
   -0.2833   -3.6042    0.0000 O   0  0  0  0  0  0  0  0  0  0  0  0
    1.1417   -1.1250    0.0000 C   0  0  0  0  0  0  0  0  0  0  0  0
    1.1417   -4.4250    0.0000 C   0  0  0  0  0  0  0  0  0  0  0  0
   -0.2833   -1.9542    0.0000 C   0  0  0  0  0  0  0  0  0  0  0  0
    4.0750   -2.5792    0.0000 C   0  0  0  0  0  0  0  0  0  0  0  0
    4.7875   -2.1667    0.0000 C   0  0  0  0  0  0  0  0  0  0  0  0
    7.6375   -2.1667    0.0000 C   0  0  0  0  0  0  0  0  0  0  0  0
    9.7750   -3.4042    0.0000 C   0  0  0  0  0  0  0  0  0  0  0  0
    3.6875   -1.6542    0.0000 C   0  0  0  0  0  0  0  0  0  0  0  0
    9.0625   -3.8125    0.0000 C   0  0  0  0  0  0  0  0  0  0  0  0
    8.3500   -2.5792    0.0000 C   0  0  0  0  0  0  0  0  0  0  0  0
    9.7750   -2.5792    0.0000 C   0  0  0  0  0  0  0  0  0  0  0  0
    6.9250   -2.5792    0.0000 C   0  0  0  0  0  0  0  0  0  0  0  0
    5.5000   -2.5792    0.0000 C   0  0  0  0  0  0  0  0  0  0  0  0
    9.0625   -2.1667    0.0000 C   0  0  0  0  0  0  0  0  0  0  0  0
    6.2125   -2.1667    0.0000 C   0  0  0  0  0  0  0  0  0  0  0  0
    9.0625   -4.6292    0.0000 C   0  0  0  0  0  0  0  0  0  0  0  0
    8.3500   -5.0417    0.0000 C   0  0  0  0  0  0  0  0  0  0  0  0
    9.7750   -5.0417    0.0000 C   0  0  0  0  0  0  0  0  0  0  0  0
    9.0625   -1.3417    0.0000 C   0  0  0  0  0  0  0  0  0  0  0  0
    6.2125   -1.3417    0.0000 C   0  0  0  0  0  0  0  0  0  0  0  0
  2  1  1  0
  3  1  2  0
  4  6  2  0
  5  2  2  0
  6  3  1  0
  7  1  1  0
  8  2  1  0
  9  7  1  0
 10  9  1  0
 11  4  1  0
 12  3  1  0
 13  5  1  0
 14  6  1  0
 15  9  1  0
 16 15  1  0
 17 23  1  0
 18 22  1  0
 19  9  1  0
 20 18  1  0
 21 17  1  0
 22 25  1  0
 23 26  1  0
 24 16  1  0
 25 21  1  0
 26 24  1  0
 27 20  1  0
 28 27  1  0
 29 27  1  0
 30 25  1  0
 31 26  1  0
  4  5  1  0
 10  8  1  0
M  END
>  <ID>  (2337) 


>  <MOLENAME>  (2337) 
alpha-TOCHOPHEROL [4 mM]

>  <therap>  (2337) 
vitamin E, antioxidant

>  <ref>  (2337) 
N Engl J Med 336:1216 (1997); J Am Med Assoc 277:1380 (1977)

>  <cas#>  (2337) 
59-02-9

>  <source>  (2337) 
soya, wheat germ and other plant oils

>  <status>  (2337) 
USP

>  <tradename>  (2337) 
nan

>  <SMILES>  (2337) 
Cc1c(O)c(C)c2CCC(C)(CCCC(C)CCCC(C)CCCC(C)C)Oc2c1C

>  <standardized_failed>  (2337) 
False

$$$$

     RDKit          2D

 34 35  0  0  0  0  0  0  0  0999 V2000
    1.8542   -2.3667    0.0000 C   0  0  0  0  0  0  0  0  0  0  0  0
    0.4292   -3.1917    0.0000 C   0  0  0  0  0  0  0  0  0  0  0  0
    1.8500   -3.1917    0.0000 C   0  0  0  0  0  0  0  0  0  0  0  0
    1.1417   -3.6000    0.0000 C   0  0  0  0  0  0  0  0  0  0  0  0
    1.1417   -1.9500    0.0000 C   0  0  0  0  0  0  0  0  0  0  0  0
    0.4292   -2.3667    0.0000 C   0  0  0  0  0  0  0  0  0  0  0  0
    2.5667   -1.9542    0.0000 O   0  0  0  0  0  0  0  0  0  0  0  0
   -0.2833   -3.6042    0.0000 O   0  0  0  0  0  0  0  0  0  0  0  0
    2.5625   -3.6042    0.0000 C   0  0  0  0  0  0  0  0  0  0  0  0
    3.2792   -2.3667    0.0000 C   0  0  0  0  0  0  0  0  0  0  0  0
   -0.9958   -3.1917    0.0000 C   0  0  0  0  0  0  0  0  0  0  0  0
   -1.0000   -2.3667    0.0000 O   0  0  0  0  0  0  0  0  0  0  0  0
    3.2792   -3.1917    0.0000 C   0  0  0  0  0  0  0  0  0  0  0  0
    1.1417   -1.1250    0.0000 C   0  0  0  0  0  0  0  0  0  0  0  0
    1.1417   -4.4250    0.0000 C   0  0  0  0  0  0  0  0  0  0  0  0
   -0.2833   -1.9542    0.0000 C   0  0  0  0  0  0  0  0  0  0  0  0
    4.0750   -2.5792    0.0000 C   0  0  0  0  0  0  0  0  0  0  0  0
    4.7875   -2.1667    0.0000 C   0  0  0  0  0  0  0  0  0  0  0  0
    7.6375   -2.1667    0.0000 C   0  0  0  0  0  0  0  0  0  0  0  0
    9.7750   -3.4042    0.0000 C   0  0  0  0  0  0  0  0  0  0  0  0
   -1.7125   -3.6042    0.0000 C   0  0  0  0  0  0  0  0  0  0  0  0
    3.6875   -1.6542    0.0000 C   0  0  0  0  0  0  0  0  0  0  0  0
    9.0625   -3.8125    0.0000 C   0  0  0  0  0  0  0  0  0  0  0  0
    5.5000   -2.5792    0.0000 C   0  0  0  0  0  0  0  0  0  0  0  0
    8.3500   -2.5792    0.0000 C   0  0  0  0  0  0  0  0  0  0  0  0
    9.7750   -2.5792    0.0000 C   0  0  0  0  0  0  0  0  0  0  0  0
    6.9250   -2.5792    0.0000 C   0  0  0  0  0  0  0  0  0  0  0  0
    6.2125   -2.1667    0.0000 C   0  0  0  0  0  0  0  0  0  0  0  0
    9.0625   -2.1667    0.0000 C   0  0  0  0  0  0  0  0  0  0  0  0
    9.0625   -4.6292    0.0000 C   0  0  0  0  0  0  0  0  0  0  0  0
    9.7750   -5.0417    0.0000 C   0  0  0  0  0  0  0  0  0  0  0  0
    8.3500   -5.0417    0.0000 C   0  0  0  0  0  0  0  0  0  0  0  0
    6.2125   -1.3417    0.0000 C   0  0  0  0  0  0  0  0  0  0  0  0
    9.0625   -1.3417    0.0000 C   0  0  0  0  0  0  0  0  0  0  0  0
  2  6  2  0
  3  1  1  0
  4  3  2  0
  5  1  2  0
  6  5  1  0
  7  1  1  0
  8  2  1  0
  9  3  1  0
 10  7  1  0
 11  8  1  0
 12 11  2  0
 13 10  1  0
 14  5  1  0
 15  4  1  0
 16  6  1  0
 17 10  1  0
 18 17  1  0
 19 27  1  0
 20 26  1  0
 21 11  1  0
 22 10  1  0
 23 20  1  0
 24 18  1  0
 25 19  1  0
 26 29  1  0
 27 28  1  0
 28 24  1  0
 29 25  1  0
 30 23  1  0
 31 30  1  0
 32 30  1  0
 33 28  1  0
 34 29  1  0
  2  4  1  0
 13  9  1  0
M  END
>  <ID>  (2338) 


>  <MOLENAME>  (2338) 
alpha-TOCHOPHERYL ACETATE [4mM]

>  <therap>  (2338) 
vitamin E

>  <ref>  (2338) 
Anal Profiles Drug Subs 3:111 (1974)

>  <cas#>  (2338) 
58-95-7

>  <source>  (2338) 
derivative

>  <status>  (2338) 
USP

>  <tradename>  (2338) 
EPHYNAL

>  <SMILES>  (2338) 
CC(=O)Oc1c(C)c(C)c2OC(C)(CCCC(C)CCCC(C)CCCC(C)C)CCc2c1C

>  <standardized_failed>  (2338) 
False

$$$$

     RDKit          2D

 43 48  0  0  0  0  0  0  0  0999 V2000
    6.8167   -3.4167    0.0000 C   0  0  0  0  0  0  0  0  0  0  0  0
    7.8167   -2.5292    0.0000 C   0  0  0  0  0  0  0  0  0  0  0  0
    9.1167   -1.9667    0.0000 C   0  0  0  0  0  0  0  0  0  0  0  0
    8.2917   -1.8667    0.0000 C   0  0  0  0  0  0  0  0  0  0  0  0
    8.1417   -3.2917    0.0000 C   0  0  0  0  0  0  0  0  0  0  0  0
    5.3917   -5.0667    0.0000 C   0  0  0  0  0  0  0  0  0  0  0  0
    9.6042   -1.3042    0.0000 C   0  0  0  0  0  0  0  0  0  0  0  0
    6.1042   -3.8292    0.0000 C   0  0  0  0  0  0  0  0  0  0  0  0
    6.2167   -5.4542    0.0000 O   0  0  0  0  0  0  0  0  0  0  0  0
    7.5292   -3.8292    0.0000 C   0  0  0  0  0  0  0  0  0  0  0  0
    8.4667   -0.4542    0.0000 N   0  0  0  0  0  0  0  0  0  0  0  0
    6.9917   -2.6167    0.0000 C   0  0  0  0  0  0  0  0  0  0  0  0
    6.1042   -4.6542    0.0000 C   0  0  0  0  0  0  0  0  0  0  0  0
    9.2792   -0.5542    0.0000 C   0  0  0  0  0  0  0  0  0  0  0  0
    8.9542   -3.3792    0.0000 C   0  0  0  0  0  0  0  0  0  0  0  0
    9.4417   -2.7167    0.0000 C   0  0  0  0  0  0  0  0  0  0  0  0
    7.9667   -1.1167    0.0000 C   0  0  0  0  0  0  0  0  0  0  0  0
    4.6917   -4.6542    0.0000 C   0  0  0  0  0  0  0  0  0  0  0  0
    3.4042   -5.0667    0.0000 C   0  0  0  0  0  0  0  0  0  0  0  0
    3.9667   -5.0667    0.0000 O   0  0  0  0  0  0  0  0  0  0  0  0
    7.5292   -4.6667    0.0000 C   0  0  0  0  0  0  0  0  0  0  0  0
    5.3917   -3.4167    0.0000 C   0  0  0  0  0  0  0  0  0  0  0  0
    6.8167   -5.0667    0.0000 C   0  0  0  0  0  0  0  0  0  0  0  0
    2.9917   -4.3917    0.0000 C   0  0  0  0  0  0  0  0  0  0  0  0
    8.1292    0.3083    0.0000 C   0  0  0  0  0  0  0  0  0  0  0  0
    9.7792    0.1083    0.0000 C   0  0  0  0  0  0  0  0  0  0  0  0
    4.6917   -3.8292    0.0000 C   0  0  0  0  0  0  0  0  0  0  0  0
    3.0042   -5.7542    0.0000 O   0  0  0  0  0  0  0  0  0  0  0  0
    7.2292   -1.9417    0.0000 O   0  0  0  0  0  0  0  0  0  0  0  0
   10.4292   -1.3042    0.0000 O   0  0  0  0  0  0  0  0  0  0  0  0
    9.8667   -2.0792    0.0000 O   0  0  0  0  0  0  0  0  0  0  0  0
    8.3542   -4.0792    0.0000 O   0  0  0  0  0  0  0  0  0  0  0  0
    5.3917   -5.8917    0.0000 O   0  0  0  0  0  0  0  0  0  0  0  0
    2.1917   -4.3917    0.0000 C   0  0  0  0  0  0  0  0  0  0  0  0
   10.0167   -0.5792    0.0000 C   0  0  0  0  0  0  0  0  0  0  0  0
   10.2417   -2.9292    0.0000 O   0  0  0  0  0  0  0  0  0  0  0  0
    6.0917   -3.0167    0.0000 C   0  0  0  0  0  0  0  0  0  0  0  0
    9.4542    0.8708    0.0000 C   0  0  0  0  0  0  0  0  0  0  0  0
    8.6292    0.9708    0.0000 C   0  0  0  0  0  0  0  0  0  0  0  0
    4.6167   -1.6792    0.0000 Cl  0  0  0  0  0  0  0  0  0  0  0  0
    3.3917   -3.6917    0.0000 C   0  0  0  0  0  0  0  0  0  0  0  0
    1.7917   -5.0792    0.0000 C   0  0  0  0  0  0  0  0  0  0  0  0
    8.4167    1.7833    0.0000 C   0  0  0  0  0  0  0  0  0  0  0  0
  2 12  1  0
  3  4  1  0
  4  2  1  0
  5 10  1  0
  6  9  1  0
  3  7  1  0
  8  1  1  0
  1  9  1  0
 10  1  1  0
 11 17  1  0
  1 12  1  6
 13  8  1  0
 14 11  1  0
 15  5  1  0
 16 15  1  0
  4 17  1  6
 18  6  1  0
 19 20  1  0
 18 20  1  1
 10 21  1  6
 22  8  1  0
 23 21  1  0
 24 19  1  0
 25 11  1  0
 14 26  1  1
 27 22  1  0
 28 19  2  0
  2 29  1  6
  7 30  1  0
  3 31  1  6
  5 32  1  6
  6 33  1  1
 34 24  2  0
  7 35  1  6
 16 36  1  1
  8 37  1  1
 38 26  1  0
 39 25  1  0
 41 24  1  0
 42 34  1  0
 39 43  1  1
  2  5  1  0
 13  6  1  0
 13 23  1  6
 27 18  1  0
  3 16  1  0
  7 14  1  0
 39 38  1  0
M  END
>  <ID>  (2339) 


>  <MOLENAME>  (2339) 
VERATRINE HYDROCHLORIDE

>  <therap>  (2339) 
antihypertensive, antimicrobial, neurotoxin

>  <ref>  (2339) 
Acta Pharmacol Toxicol 5:110 (1949); J Physiol 451: 91 (1992); Microscopy Res Techn 69:108 (2006)

>  <cas#>  (2339) 
62-59-9

>  <source>  (2339) 
Schoenocaulon officinale; shown as cevadine

>  <status>  (2339) 
experimental

>  <tradename>  (2339) 
nan

>  <SMILES>  (2339) 
C/C=C(/C)C(=O)O[C@H]1CC[C@@]2(C)[C@@H]3CC[C@@H]4[C@@]2(C[C@@]2(O)[C@@H]5CN6C[C@@H](C)CC[C@H]6[C@@](C)(O)[C@@]5(O)[C@@H](O)C[C@@]42O)O[C@]13O

>  <standardized_failed>  (2339) 
False

$$$$

     RDKit          2D

  6  5  0  0  0  0  0  0  0  0999 V2000
    2.8792   -1.9167    0.0000 S   0  0  0  0  0  0  0  0  0  0  0  0
    3.3625   -2.5667    0.0000 O   0  0  0  0  0  0  0  0  0  0  0  0
    2.3292   -2.5625    0.0000 O   0  0  0  0  0  0  0  0  0  0  0  0
    3.5917   -1.5042    0.0000 O   0  0  0  0  0  0  0  0  0  0  0  0
    2.1667   -1.5125    0.0000 C   0  0  0  0  0  0  0  0  0  0  0  0
    4.3042   -1.9167    0.0000 C   0  0  0  0  0  0  0  0  0  0  0  0
  2  1  2  0
  3  1  2  0
  4  1  1  0
  5  1  1  0
  6  4  1  0
M  END
>  <ID>  (2340) 


>  <MOLENAME>  (2340) 
METHYLMETHANE SULFONATE

>  <therap>  (2340) 
antineoplastic, alkylating agent

>  <ref>  (2340) 
J Bacteriol 93:1056 (1967); Proc Natl Acad Sci 99:16934 (2002); Nucleic Acid Res 33:3799 (2005)

>  <cas#>  (2340) 
66-27-3

>  <source>  (2340) 
synthetic

>  <status>  (2340) 
experimental

>  <tradename>  (2340) 
nan

>  <SMILES>  (2340) 
COS(C)(=O)=O

>  <standardized_failed>  (2340) 
False

$$$$

     RDKit          2D

 13 13  0  0  0  0  0  0  0  0999 V2000
    3.1750   -2.1500    0.0000 C   0  0  0  0  0  0  0  0  0  0  0  0
    2.7667   -2.8625    0.0000 N   0  0  0  0  0  0  0  0  0  0  0  0
    2.7542   -0.0167    0.0000 N   0  0  0  0  0  0  0  0  0  0  0  0
    2.7667   -1.4417    0.0000 C   0  0  0  0  0  0  0  0  0  0  0  0
    3.1750   -0.7292    0.0000 C   0  0  0  0  0  0  0  0  0  0  0  0
    4.0000   -2.1500    0.0000 C   0  0  0  0  0  0  0  0  0  0  0  0
    3.1792   -3.5792    0.0000 O   0  0  0  0  0  0  0  0  0  0  0  0
    3.1667    0.7000    0.0000 O   0  0  0  0  0  0  0  0  0  0  0  0
    1.9417   -2.8625    0.0000 O   0  0  0  0  0  0  0  0  0  0  0  0
    1.9292   -0.0167    0.0000 O   0  0  0  0  0  0  0  0  0  0  0  0
    4.0000   -0.7250    0.0000 C   0  0  0  0  0  0  0  0  0  0  0  0
    4.4125   -1.4375    0.0000 C   0  0  0  0  0  0  0  0  0  0  0  0
    4.4125   -2.8667    0.0000 O   0  0  0  0  0  0  0  0  0  0  0  0
  2  1  1  0
  3  5  1  0
  4  1  2  0
  5  4  1  0
  6  1  1  0
  7  2  1  0
  8  3  1  0
  9  2  2  0
 10  3  2  0
 11 12  1  0
 12  6  2  0
 13  6  1  0
  5 11  2  0
M  CHG  4   2   1   3   1   7  -1   8  -1
M  END
>  <ID>  (2341) 


>  <MOLENAME>  (2341) 
2.4-DINITROPHENOL

>  <therap>  (2341) 
uncouples oxidative phosphorylation

>  <ref>  (2341) 
nan

>  <cas#>  (2341) 
51-28-5

>  <source>  (2341) 
synthetic

>  <status>  (2341) 
Martindale 28

>  <tradename>  (2341) 
nan

>  <SMILES>  (2341) 
O=[N+]([O-])c1ccc(O)c([N+](=O)[O-])c1

>  <standardized_failed>  (2341) 
False

$$$$

     RDKit          2D

  6  4  0  0  0  0  0  0  0  0999 V2000
    3.6292   -6.3375    0.0000 C   0  0  0  0  0  0  0  0  0  0  0  0
    3.6292   -7.1625    0.0000 O   0  0  0  0  0  0  0  0  0  0  0  0
    4.3417   -5.9250    0.0000 O   0  0  0  0  0  0  0  0  0  0  0  0
    4.7375   -7.3667    0.0000 Na  0  0  0  0  0 15  0  0  0  0  0  0
    2.2042   -6.3375    0.0000 F   0  0  0  0  0  0  0  0  0  0  0  0
    2.9167   -5.9250    0.0000 C   0  0  0  0  0  0  0  0  0  0  0  0
  2  1  1  0
  3  1  2  0
  5  6  1  0
  6  1  1  0
M  CHG  2   2  -1   4   1
M  END
>  <ID>  (2342) 


>  <MOLENAME>  (2342) 
SODIUM FLUOROACETATE

>  <therap>  (2342) 
inhibits citric acid cycle

>  <ref>  (2342) 
New Zealand J Ecology 23:161 (1999); Toxicol Rev 25:213 (2006)

>  <cas#>  (2342) 
62-74-8

>  <source>  (2342) 
synthetic

>  <status>  (2342) 
experimental

>  <tradename>  (2342) 
1080

>  <SMILES>  (2342) 
O=C(O)CF

>  <standardized_failed>  (2342) 
False

$$$$

     RDKit          2D

 12 11  0  0  0  0  0  0  0  0999 V2000
    6.0792   -3.7917    0.0000 P   0  0  0  0  0  0  0  0  0  0  0  0
    6.7917   -4.2042    0.0000 S   0  0  0  0  0  0  0  0  0  0  0  0
    7.5042   -3.7917    0.0000 C   0  0  0  0  0  0  0  0  0  0  0  0
    8.2167   -4.2042    0.0000 C   0  0  0  0  0  0  0  0  0  0  0  0
    5.3625   -3.3792    0.0000 S   0  0  0  0  0  0  0  0  0  0  0  0
    8.2167   -5.0292    0.0000 O   0  0  0  0  0  0  0  0  0  0  0  0
    5.3625   -4.2042    0.0000 O   0  0  0  0  0  0  0  0  0  0  0  0
    6.0792   -2.9667    0.0000 O   0  0  0  0  0  0  0  0  0  0  0  0
    8.9292   -3.7917    0.0000 N   0  0  0  0  0  0  0  0  0  0  0  0
    9.6417   -4.1917    0.0000 C   0  0  0  0  0  0  0  0  0  0  0  0
    5.3625   -5.0292    0.0000 C   0  0  0  0  0  0  0  0  0  0  0  0
    5.3667   -2.5542    0.0000 C   0  0  0  0  0  0  0  0  0  0  0  0
  2  1  1  0
  3  2  1  0
  4  3  1  0
  5  1  2  0
  6  4  2  0
  7  1  1  0
  8  1  1  0
  9  4  1  0
 10  9  1  0
 11  7  1  0
 12  8  1  0
M  END
>  <ID>  (2343) 


>  <MOLENAME>  (2343) 
DIMETHOATE

>  <therap>  (2343) 
insecticide, cholinesterase inhibitor

>  <ref>  (2343) 
Toxicol Appl Pharmacol 21:315 (1972)

>  <cas#>  (2343) 
60-51-5

>  <source>  (2343) 
synthetic

>  <status>  (2343) 
agricultural use

>  <tradename>  (2343) 
CYGON

>  <SMILES>  (2343) 
CNC(=O)CSP(=S)(OC)OC

>  <standardized_failed>  (2343) 
False

$$$$

     RDKit          2D

 27 28  0  0  0  0  0  0  0  0999 V2000
    6.6667   -3.0917    0.0000 P   0  0  0  0  0  0  0  0  0  0  0  0
   -0.4708   -3.1042    0.0000 P   0  0  0  0  0  0  0  0  0  0  0  0
    6.2667   -2.3667    0.0000 S   0  0  0  0  0  0  0  0  0  0  0  0
   -0.0625   -2.3917    0.0000 S   0  0  0  0  0  0  0  0  0  0  0  0
    5.9542   -3.5042    0.0000 O   0  0  0  0  0  0  0  0  0  0  0  0
    0.2417   -3.5167    0.0000 O   0  0  0  0  0  0  0  0  0  0  0  0
    3.1000   -1.8625    0.0000 S   0  0  0  0  0  0  0  0  0  0  0  0
    7.3875   -3.5042    0.0000 O   0  0  0  0  0  0  0  0  0  0  0  0
   -1.1875   -3.5167    0.0000 O   0  0  0  0  0  0  0  0  0  0  0  0
    7.3917   -2.6750    0.0000 O   0  0  0  0  0  0  0  0  0  0  0  0
   -1.1875   -2.6917    0.0000 O   0  0  0  0  0  0  0  0  0  0  0  0
    3.8167   -2.2667    0.0000 C   0  0  0  0  0  0  0  0  0  0  0  0
    2.3792   -2.2792    0.0000 C   0  0  0  0  0  0  0  0  0  0  0  0
    5.2417   -3.0875    0.0000 C   0  0  0  0  0  0  0  0  0  0  0  0
    0.9542   -3.1042    0.0000 C   0  0  0  0  0  0  0  0  0  0  0  0
    1.6667   -1.8667    0.0000 C   0  0  0  0  0  0  0  0  0  0  0  0
    3.8167   -3.0917    0.0000 C   0  0  0  0  0  0  0  0  0  0  0  0
    4.5167   -1.8542    0.0000 C   0  0  0  0  0  0  0  0  0  0  0  0
    2.3792   -3.1042    0.0000 C   0  0  0  0  0  0  0  0  0  0  0  0
    4.5292   -3.5042    0.0000 C   0  0  0  0  0  0  0  0  0  0  0  0
    5.2375   -2.2542    0.0000 C   0  0  0  0  0  0  0  0  0  0  0  0
    0.9542   -2.2792    0.0000 C   0  0  0  0  0  0  0  0  0  0  0  0
    1.6667   -3.5167    0.0000 C   0  0  0  0  0  0  0  0  0  0  0  0
    7.3917   -1.8500    0.0000 C   0  0  0  0  0  0  0  0  0  0  0  0
    7.3875   -4.3292    0.0000 C   0  0  0  0  0  0  0  0  0  0  0  0
   -1.1958   -1.8667    0.0000 C   0  0  0  0  0  0  0  0  0  0  0  0
   -1.1875   -4.3417    0.0000 C   0  0  0  0  0  0  0  0  0  0  0  0
  2  6  1  0
  3  1  2  0
  4  2  2  0
  5  1  1  0
  6 15  1  0
  7 12  1  0
  8  1  1  0
  9  2  1  0
 10  1  1  0
 11  2  1  0
 12 18  1  0
 13  7  1  0
 14  5  1  0
 15 23  2  0
 16 13  1  0
 17 20  1  0
 18 21  2  0
 19 13  2  0
 20 14  2  0
 21 14  1  0
 22 16  2  0
 23 19  1  0
 24 10  1  0
 25  8  1  0
 26 11  1  0
 27  9  1  0
 12 17  2  0
 22 15  1  0
M  END
>  <ID>  (2344) 


>  <MOLENAME>  (2344) 
TEMEFOS

>  <therap>  (2344) 
insecticide

>  <ref>  (2344) 
Toxicol Appl Pharmacol 14:515 (1969)

>  <cas#>  (2344) 
3383-96-8

>  <source>  (2344) 
synthetic; ENT-27165

>  <status>  (2344) 
USAN, INN

>  <tradename>  (2344) 
BIOTHION

>  <SMILES>  (2344) 
COP(=S)(OC)Oc1ccc(Sc2ccc(OP(=S)(OC)OC)cc2)cc1

>  <standardized_failed>  (2344) 
False

$$$$

     RDKit          2D

 62 63  0  0  0  0  0  0  0  0999 V2000
    9.8417   -3.0167    0.0000 C   0  0  0  0  0  0  0  0  0  0  0  0
   -3.3708   -1.5917    0.0000 C   0  0  0  0  0  0  0  0  0  0  0  0
   10.2500   -3.7292    0.0000 S   0  0  0  0  0  0  0  0  0  0  0  0
   -3.7750   -2.3125    0.0000 S   0  0  0  0  0  0  0  0  0  0  0  0
   10.2542   -0.8625    0.0000 S   0  0  0  0  0  0  0  0  0  0  0  0
   -3.7833    0.5583    0.0000 S   0  0  0  0  0  0  0  0  0  0  0  0
   -2.1250   -0.8792    0.0000 C   0  0  0  0  0  0  0  0  0  0  0  0
    8.6000   -2.3000    0.0000 C   0  0  0  0  0  0  0  0  0  0  0  0
    9.0125   -3.0167    0.0000 C   0  0  0  0  0  0  0  0  0  0  0  0
   -2.5375   -1.5917    0.0000 C   0  0  0  0  0  0  0  0  0  0  0  0
    9.8417   -1.5792    0.0000 C   0  0  0  0  0  0  0  0  0  0  0  0
   -3.3708   -0.1542    0.0000 C   0  0  0  0  0  0  0  0  0  0  0  0
   -2.5375   -0.1542    0.0000 C   0  0  0  0  0  0  0  0  0  0  0  0
    9.0125   -1.5792    0.0000 C   0  0  0  0  0  0  0  0  0  0  0  0
   10.2542   -2.2917    0.0000 C   0  0  0  0  0  0  0  0  0  0  0  0
   -3.7833   -0.8750    0.0000 C   0  0  0  0  0  0  0  0  0  0  0  0
    7.7750   -2.3000    0.0000 C   0  0  0  0  0  0  0  0  0  0  0  0
   -1.3000   -0.8792    0.0000 C   0  0  0  0  0  0  0  0  0  0  0  0
    6.5375   -1.5875    0.0000 N   0  0  0  0  0  0  0  0  0  0  0  0
   -0.0583   -0.1667    0.0000 N   0  0  0  0  0  0  0  0  0  0  0  0
    0.3542   -0.8792    0.0000 N   0  0  0  0  0  0  0  0  0  0  0  0
    6.1250   -0.8750    0.0000 N   0  0  0  0  0  0  0  0  0  0  0  0
   -0.8833   -0.1667    0.0000 C   0  0  0  0  0  0  0  0  0  0  0  0
    7.3625   -1.5875    0.0000 C   0  0  0  0  0  0  0  0  0  0  0  0
   -2.1250    0.5625    0.0000 C   0  0  0  0  0  0  0  0  0  0  0  0
    8.6000   -0.8542    0.0000 C   0  0  0  0  0  0  0  0  0  0  0  0
    3.6500   -0.8750    0.0000 C   0  0  0  0  0  0  0  0  0  0  0  0
    2.8292   -0.8750    0.0000 C   0  0  0  0  0  0  0  0  0  0  0  0
   -4.3458   -3.1167    0.0000 O   0  0  0  0  0  0  0  0  0  0  0  0
   10.8167   -4.5417    0.0000 O   0  0  0  0  0  0  0  0  0  0  0  0
   10.6750   -0.1417    0.0000 O   0  0  0  0  0  0  0  0  0  0  0  0
   -4.1958    1.2750    0.0000 O   0  0  0  0  0  0  0  0  0  0  0  0
   -3.3125   -3.0542    0.0000 O   0  0  0  0  0  0  0  0  0  0  0  0
    9.7917   -4.4792    0.0000 O   0  0  0  0  0  0  0  0  0  0  0  0
   11.0542   -3.5167    0.0000 O   0  0  0  0  0  0  0  0  0  0  0  0
   -4.5833   -2.0917    0.0000 O   0  0  0  0  0  0  0  0  0  0  0  0
    4.0625   -1.5917    0.0000 C   0  0  0  0  0  0  0  0  0  0  0  0
    2.4167   -1.5875    0.0000 C   0  0  0  0  0  0  0  0  0  0  0  0
    9.7542   -0.1375    0.0000 O   0  0  0  0  0  0  0  0  0  0  0  0
   -3.2833    1.2833    0.0000 O   0  0  0  0  0  0  0  0  0  0  0  0
   -4.5333    0.4083    0.0000 O   0  0  0  0  0  0  0  0  0  0  0  0
   11.0042   -1.0125    0.0000 O   0  0  0  0  0  0  0  0  0  0  0  0
    5.3000   -0.8750    0.0000 C   0  0  0  0  0  0  0  0  0  0  0  0
    1.1792   -0.8792    0.0000 C   0  0  0  0  0  0  0  0  0  0  0  0
    1.5917   -1.5875    0.0000 C   0  0  0  0  0  0  0  0  0  0  0  0
    4.8792   -1.5917    0.0000 C   0  0  0  0  0  0  0  0  0  0  0  0
    7.7667   -0.8625    0.0000 C   0  0  0  0  0  0  0  0  0  0  0  0
   -1.2958    0.5583    0.0000 C   0  0  0  0  0  0  0  0  0  0  0  0
    8.6000   -3.7292    0.0000 N   0  0  0  0  0  0  0  0  0  0  0  0
   -2.1250   -2.3042    0.0000 N   0  0  0  0  0  0  0  0  0  0  0  0
    4.0542   -0.1583    0.0000 C   0  0  0  0  0  0  0  0  0  0  0  0
    2.4167   -0.1583    0.0000 C   0  0  0  0  0  0  0  0  0  0  0  0
    1.5917   -0.1667    0.0000 C   0  0  0  0  0  0  0  0  0  0  0  0
    4.8792   -0.1542    0.0000 C   0  0  0  0  0  0  0  0  0  0  0  0
   -0.8875   -1.5917    0.0000 O   0  0  0  0  0  0  0  0  0  0  0  0
    7.3625   -3.0125    0.0000 O   0  0  0  0  0  0  0  0  0  0  0  0
   -5.2208    1.3458    0.0000 Na  0  0  0  0  0 15  0  0  0  0  0  0
   -5.5333   -3.2750    0.0000 Na  0  0  0  0  0 15  0  0  0  0  0  0
   12.0250   -0.1250    0.0000 Na  0  0  0  0  0 15  0  0  0  0  0  0
   11.7125   -4.7417    0.0000 Na  0  0  0  0  0 15  0  0  0  0  0  0
    5.2917   -2.3042    0.0000 C   0  0  0  0  0  0  0  0  0  0  0  0
    1.1792   -2.3000    0.0000 C   0  0  0  0  0  0  0  0  0  0  0  0
  2 10  2  0
  3  1  1  0
  4  2  1  0
  5 11  1  0
  6 12  1  0
  7 18  2  0
  8  9  1  0
  9  1  2  0
 10  7  1  0
 11 15  2  0
 12 13  1  0
 13 25  2  0
 14 11  1  0
 15  1  1  0
 16 12  2  0
 17  8  2  0
 18 23  1  0
 19 24  1  0
 20 21  2  0
 21 44  1  0
 22 19  2  0
 23 20  1  0
 24 17  1  0
 25 48  1  0
 26 14  2  0
 27 51  2  0
 28 27  1  0
 29  4  1  0
 30  3  1  0
 31  5  1  0
 32  6  1  0
 33  4  2  0
 34  3  2  0
 35  3  2  0
 36  4  2  0
 37 46  2  0
 38 28  2  0
 39  5  2  0
 40  6  2  0
 41  6  2  0
 42  5  2  0
 43 22  1  0
 44 53  1  0
 45 38  1  0
 46 43  1  0
 47 26  1  0
 48 23  2  0
 49  9  1  0
 50 10  1  0
 51 54  1  0
 52 28  1  0
 53 52  2  0
 54 43  2  0
 55 18  1  0
 56 17  1  0
 61 46  1  0
 62 45  1  0
  8 14  1  0
 24 47  2  0
 27 37  1  0
 44 45  2  0
  7 13  1  0
  2 16  1  0
M  CHG  8  29  -1  30  -1  31  -1  32  -1  57   1  58   1  59   1  60   1
M  END
>  <ID>  (2345) 


>  <MOLENAME>  (2345) 
EVANS BLUE

>  <therap>  (2345) 
glutamate uptake inhibitor, AMPA blocker

>  <ref>  (2345) 
Scan J Clin Lab Invest14:605 (1962); Eur J Periatr 125:135 (1977); J Neurochem 65:96 (1995); Mol Pharmacol 50:1665 (1997)

>  <cas#>  (2345) 
314-13-6

>  <source>  (2345) 
synthetic; CI-23860, T-1824

>  <status>  (2345) 
USP-XXII

>  <tradename>  (2345) 
nan

>  <SMILES>  (2345) 
Cc1cc(-c2cc(C)c(/N=N/c3ccc4c(S(=O)(=O)O)cc(S(=O)(=O)O)c(N)c4c3O)cc2)ccc1/N=N/c1ccc2c(S(=O)(=O)O)cc(S(=O)(=O)O)c(N)c2c1O

>  <standardized_failed>  (2345) 
False

$$$$

     RDKit          2D

  8  7  0  0  0  0  0  0  0  0999 V2000
    3.9875   -2.0292    0.0000 C   0  0  0  0  0  0  0  0  0  0  0  0
    3.2708   -1.6167    0.0000 N   0  0  0  0  0  0  0  0  0  0  0  0
    4.7000   -1.6167    0.0000 C   0  0  0  0  0  0  0  0  0  0  0  0
    3.9875   -2.8542    0.0000 C   0  0  0  0  0  0  0  0  0  0  0  0
    4.7000   -2.4417    0.0000 C   0  0  0  0  0  0  0  0  0  0  0  0
    3.2708   -3.2667    0.0000 O   0  0  0  0  0  0  0  0  0  0  0  0
    4.6958   -3.2667    0.0000 O   0  0  0  0  0  0  0  0  0  0  0  0
    5.4125   -2.0292    0.0000 O   0  0  0  0  0  0  0  0  0  0  0  0
  2  1  1  0
  3  1  1  0
  4  1  1  0
  5  1  1  0
  6  4  1  0
  7  5  1  0
  8  3  1  0
M  END
>  <ID>  (2346) 


>  <MOLENAME>  (2346) 
TROMETHAMINE

>  <therap>  (2346) 
osmotic diuretic, alkalizer

>  <ref>  (2346) 
JAMA 178:1000 (1961); FEBS Lett 199:92 (1986); Drugs 55:191 (1998)

>  <cas#>  (2346) 
nan

>  <source>  (2346) 
synthetic

>  <status>  (2346) 
USP, INN, BAN

>  <tradename>  (2346) 
THAM

>  <SMILES>  (2346) 
NC(CO)(CO)CO

>  <standardized_failed>  (2346) 
False

$$$$

     RDKit          2D

 12 11  0  0  0  0  0  0  0  0999 V2000
    3.5000   -2.1792    0.0000 C   0  0  0  0  0  0  0  0  0  0  0  0
    2.7875   -1.7667    0.0000 C   0  0  0  0  0  0  0  0  0  0  0  0
    4.2125   -1.7667    0.0000 C   0  0  0  0  0  0  0  0  0  0  0  0
    2.0667   -2.1792    0.0000 C   0  0  0  0  0  0  0  0  0  0  0  0
    4.2042   -0.9417    0.0000 O   0  0  0  0  0  0  0  0  0  0  0  0
    3.4917   -3.0042    0.0000 O   0  0  0  0  0  0  0  0  0  0  0  0
    2.7792   -0.9417    0.0000 O   0  0  0  0  0  0  0  0  0  0  0  0
    2.0667   -3.0042    0.0000 O   0  0  0  0  0  0  0  0  0  0  0  0
    4.9250   -2.1792    0.0000 C   0  0  0  0  0  0  0  0  0  0  0  0
    5.6375   -1.7667    0.0000 O   0  0  0  0  0  0  0  0  0  0  0  0
    0.6500   -2.1792    0.0000 O   0  0  0  0  0  0  0  0  0  0  0  0
    1.3625   -1.7667    0.0000 C   0  0  0  0  0  0  0  0  0  0  0  0
  2  1  1  0
  3  1  1  0
  4  2  1  0
  5  3  2  0
  6  1  1  0
  7  2  1  0
  8  4  1  0
  9  3  1  0
 10  9  1  0
 11 12  1  0
 12  4  1  0
M  END
>  <ID>  (2347) 


>  <MOLENAME>  (2347) 
L(-)-SORBOSE

>  <therap>  (2347) 
enhances cellulase production

>  <ref>  (2347) 
J Chem Educ 36:60 (1959); J Gen Microbiol 132: 973, 2761 (1986);  Appl Microbiol Biotechnol 24:449 (1986); Chem Biochem Eng Q 15:127 (2001)

>  <cas#>  (2347) 
87-79-6

>  <source>  (2347) 
Acetobacter suboxydans, Gluconobacter oxydans

>  <status>  (2347) 
experimental

>  <tradename>  (2347) 
nan

>  <SMILES>  (2347) 
O=C(CO)C(O)C(O)C(O)CO

>  <standardized_failed>  (2347) 
False

$$$$

     RDKit          2D

 41 42  0  0  0  0  0  0  0  0999 V2000
   -1.0333    1.1500    0.0000 C   0  0  0  0  0  0  0  0  0  0  0  0
   -2.6458   -1.4917    0.0000 C   0  0  0  0  0  0  0  0  0  0  0  0
   -0.6833   -0.1167    0.0000 C   0  0  0  0  0  0  0  0  0  0  0  0
   -1.2708   -1.1167    0.0000 C   0  0  0  0  0  0  0  0  0  0  0  0
   -1.7000    1.1500    0.0000 C   0  0  0  0  0  0  0  0  0  0  0  0
   -2.9833   -2.0750    0.0000 C   0  0  0  0  0  0  0  0  0  0  0  0
   -1.2708   -0.4542    0.0000 C   0  0  0  0  0  0  0  0  0  0  0  0
   -2.0375    1.7458    0.0000 C   0  0  0  0  0  0  0  0  0  0  0  0
   -3.6833   -2.0750    0.0000 C   0  0  0  0  0  0  0  0  0  0  0  0
   -0.0875   -0.4542    0.0000 C   0  0  0  0  0  0  0  0  0  0  0  0
   -0.6833    1.7333    0.0000 O   0  0  0  0  0  0  0  0  0  0  0  0
   -2.9833   -0.9042    0.0000 O   0  0  0  0  0  0  0  0  0  0  0  0
   -0.6875    0.5583    0.0000 O   0  0  0  0  0  0  0  0  0  0  0  0
   -1.9708   -1.4917    0.0000 O   0  0  0  0  0  0  0  0  0  0  0  0
   -1.6958    2.3208    0.0000 C   0  0  0  0  0  0  0  0  0  0  0  0
   -4.0208   -1.4917    0.0000 C   0  0  0  0  0  0  0  0  0  0  0  0
   -3.6833   -0.9042    0.0000 C   0  0  0  0  0  0  0  0  0  0  0  0
   -1.0208    2.3208    0.0000 C   0  0  0  0  0  0  0  0  0  0  0  0
    0.5042   -0.1167    0.0000 N   0  0  0  0  0  0  0  0  0  0  0  0
    0.9792   -0.5750    0.0000 C   0  0  0  0  0  0  0  0  0  0  0  0
   -0.6833   -1.4667    0.0000 C   0  0  0  0  0  0  0  0  0  0  0  0
   -0.0875   -1.1167    0.0000 C   0  0  0  0  0  0  0  0  0  0  0  0
    0.6375   -1.1417    0.0000 O   0  0  0  0  0  0  0  0  0  0  0  0
   -2.7250    1.7458    0.0000 N   0  0  0  0  0  0  0  0  0  0  0  0
    1.6542   -0.5750    0.0000 C   0  0  0  0  0  0  0  0  0  0  0  0
   -2.0458    0.5583    0.0000 O   0  0  0  0  0  0  0  0  0  0  0  0
   -2.6458   -2.6667    0.0000 O   0  0  0  0  0  0  0  0  0  0  0  0
   -1.8625   -0.1042    0.0000 O   0  0  0  0  0  0  0  0  0  0  0  0
   -4.0208   -2.6667    0.0000 O   0  0  0  0  0  0  0  0  0  0  0  0
   -0.6833   -2.1292    0.0000 N   0  0  0  0  0  0  0  0  0  0  0  0
   -2.0333    2.9083    0.0000 O   0  0  0  0  0  0  0  0  0  0  0  0
   -4.6958   -1.4917    0.0000 O   0  0  0  0  0  0  0  0  0  0  0  0
   -4.0208   -0.3250    0.0000 C   0  0  0  0  0  0  0  0  0  0  0  0
   -0.6750    2.9083    0.0000 C   0  0  0  0  0  0  0  0  0  0  0  0
    1.9917   -0.0000    0.0000 C   0  0  0  0  0  0  0  0  0  0  0  0
   -4.7083   -0.3292    0.0000 N   0  0  0  0  0  0  0  0  0  0  0  0
    3.0125    0.5708    0.0000 N   0  0  0  0  0  0  0  0  0  0  0  0
    1.9917   -1.1542    0.0000 O   0  0  0  0  0  0  0  0  0  0  0  0
   -1.0208    3.4958    0.0000 O   0  0  0  0  0  0  0  0  0  0  0  0
    5.4667    0.4875    0.0000 O   0  0  0  0  0  0  0  0  0  0  0  0
    2.6792   -0.0000    0.0000 C   0  0  0  0  0  0  0  0  0  0  0  0
  2 14  1  6
  3 13  1  1
  4  7  1  0
  5  1  1  0
  6  2  1  0
  7  3  1  0
  8  5  1  0
  9  6  1  0
 10  3  1  0
 11  1  1  0
 12  2  1  0
  1 13  1  6
  4 14  1  1
 15 18  1  0
 16 17  1  0
 17 12  1  0
 18 11  1  0
 10 19  1  6
 20 19  1  0
 21 22  1  0
 22 10  1  0
 23 20  2  0
  8 24  1  1
 25 20  1  0
 26  5  1  0
  6 27  1  6
  7 28  1  6
  9 29  1  1
 21 30  1  6
 15 31  1  6
 16 32  1  6
 17 33  1  1
 18 34  1  1
 35 25  1  0
 36 33  1  0
 37 41  1  0
 25 38  1  1
 39 34  1  0
 41 35  1  0
  8 15  1  0
  4 21  1  0
  9 16  1  0
M  END
>  <ID>  (2348) 


>  <MOLENAME>  (2348) 
AMIKACIN HYDRATE

>  <therap>  (2348) 
antibacterial

>  <ref>  (2348) 
Surgery 84:603 (1978); Eur J Clin Pharmacol 31:79 (1986); Dev Pharmacol Ther 20:167 (1993)

>  <cas#>  (2348) 
 37517-28-5

>  <source>  (2348) 
semisynthetic

>  <status>  (2348) 
USP, JAN

>  <tradename>  (2348) 
AMIKIN

>  <SMILES>  (2348) 
NCC[C@@H](O)C(=O)N[C@@H]1C[C@H](N)[C@@H](O[C@H]2O[C@H](CN)[C@@H](O)[C@H](O)[C@H]2O)[C@H](O)[C@H]1O[C@H]1O[C@H](CO)[C@@H](O)[C@H](N)C1O

>  <standardized_failed>  (2348) 
False

$$$$

     RDKit          2D

 10  8  0  0  0  0  0  0  0  0999 V2000
    7.0250   -3.1542    0.0000 C   0  0  0  0  0  0  0  0  0  0  0  0
    7.0250   -2.5042    0.0000 O   0  0  0  0  0  0  0  0  0  0  0  0
    7.6750   -3.5292    0.0000 O   0  0  0  0  0  0  0  0  0  0  0  0
    1.8042   -3.5250    0.0000 Cl  0  0  0  0  0  0  0  0  0  0  0  0
    3.7792   -4.2542    0.0000 N   0  0  0  0  0  0  0  0  0  0  0  0
    6.3750   -3.5292    0.0000 C   0  0  0  0  0  0  0  0  0  0  0  0
    3.7792   -3.5292    0.0000 C   0  0  0  0  0  0  0  0  0  0  0  0
    5.7250   -3.1542    0.0000 C   0  0  0  0  0  0  0  0  0  0  0  0
    4.4250   -3.1542    0.0000 C   0  0  0  0  0  0  0  0  0  0  0  0
    5.0750   -3.5292    0.0000 C   0  0  0  0  0  0  0  0  0  0  0  0
  2  1  2  0
  3  1  1  0
  5  7  1  0
  6  1  1  0
  7  9  1  0
  8  6  1  0
  9 10  1  0
 10  8  1  0
M  END
>  <ID>  (2349) 


>  <MOLENAME>  (2349) 
AMINOCAPROIC ACID HYDROCHLORIDE

>  <therap>  (2349) 
hemostatic

>  <ref>  (2349) 
Br Med J 4:17 (1975); J Surg Oncology 33:109 (1986); J Thorac Cardiovasc Surg 95:538 (1988); Circulation 99:81 (1999)

>  <cas#>  (2349) 
4321-58-8

>  <source>  (2349) 
synthetic

>  <status>  (2349) 
USP, INN, BAN

>  <tradename>  (2349) 
AMICAR

>  <SMILES>  (2349) 
NCCCCCC(=O)O

>  <standardized_failed>  (2349) 
False

$$$$

     RDKit          2D

 20 22  0  0  0  0  0  0  0  0999 V2000
    5.3917   -4.2417    0.0000 N   0  0  0  0  0  0  0  0  0  0  0  0
    4.2625   -3.6042    0.0000 C   0  0  0  0  0  0  0  0  0  0  0  0
    3.5250   -3.4417    0.0000 N   0  0  0  0  0  0  0  0  0  0  0  0
    4.6375   -4.2542    0.0000 C   0  0  0  0  0  0  0  0  0  0  0  0
    4.6375   -2.9542    0.0000 N   0  0  0  0  0  0  0  0  0  0  0  0
    5.7625   -3.5917    0.0000 C   0  0  0  0  0  0  0  0  0  0  0  0
    5.7750   -4.8917    0.0000 C   0  0  0  0  0  0  0  0  0  0  0  0
    6.5167   -3.5792    0.0000 C   0  0  0  0  0  0  0  0  0  0  0  0
    3.4500   -2.7042    0.0000 C   0  0  0  0  0  0  0  0  0  0  0  0
    4.1292   -2.3917    0.0000 C   0  0  0  0  0  0  0  0  0  0  0  0
    6.5250   -4.8917    0.0000 C   0  0  0  0  0  0  0  0  0  0  0  0
    5.4000   -5.5417    0.0000 C   0  0  0  0  0  0  0  0  0  0  0  0
    6.8917   -2.9292    0.0000 C   0  0  0  0  0  0  0  0  0  0  0  0
    6.8917   -4.2292    0.0000 C   0  0  0  0  0  0  0  0  0  0  0  0
    5.7750   -6.1917    0.0000 C   0  0  0  0  0  0  0  0  0  0  0  0
    6.9000   -5.5417    0.0000 C   0  0  0  0  0  0  0  0  0  0  0  0
    7.6417   -4.2292    0.0000 C   0  0  0  0  0  0  0  0  0  0  0  0
    7.6417   -2.9292    0.0000 C   0  0  0  0  0  0  0  0  0  0  0  0
    8.0167   -3.5792    0.0000 C   0  0  0  0  0  0  0  0  0  0  0  0
    6.5250   -6.1917    0.0000 C   0  0  0  0  0  0  0  0  0  0  0  0
  2  4  1  0
  3  2  2  0
  4  1  1  0
  5  2  1  0
  6  1  1  0
  7  1  1  0
  8  6  1  0
  9  3  1  0
 10  5  1  0
 11  7  2  0
 12  7  1  0
 13  8  2  0
 14  8  1  0
 15 12  2  0
 16 11  1  0
 17 14  2  0
 18 13  1  0
 19 17  1  0
 20 15  1  0
 20 16  2  0
 10  9  1  0
 19 18  2  0
M  END
>  <ID>  (2350) 


>  <MOLENAME>  (2350) 
ANTAZOLINE

>  <therap>  (2350) 
antihistaminic

>  <ref>  (2350) 
Postgrad Med J 48:304 (1972); Arch Ophthalmol 108:520 (1990)

>  <cas#>  (2350) 
91-75-8

>  <source>  (2350) 
synthetic

>  <status>  (2350) 
USP

>  <tradename>  (2350) 
ANTISTINE

>  <SMILES>  (2350) 
c1ccc(CN(CC2=NCCN2)c2ccccc2)cc1

>  <standardized_failed>  (2350) 
False

$$$$

     RDKit          2D

 13 13  0  0  0  0  0  0  0  0999 V2000
    5.4042   -4.8250    0.0000 C   0  0  0  0  0  0  0  0  0  0  0  0
    6.1167   -5.2375    0.0000 C   0  0  0  0  0  0  0  0  0  0  0  0
    5.4042   -4.0000    0.0000 C   0  0  0  0  0  0  0  0  0  0  0  0
    6.8375   -4.8250    0.0000 O   0  0  0  0  0  0  0  0  0  0  0  0
    6.1167   -3.5875    0.0000 C   0  0  0  0  0  0  0  0  0  0  0  0
    6.8375   -4.0000    0.0000 C   0  0  0  0  0  0  0  0  0  0  0  0
    6.1167   -6.0625    0.0000 S   0  0  0  0  0  0  0  0  0  0  0  0
    4.6875   -5.2417    0.0000 O   0  0  0  0  0  0  0  0  0  0  0  0
    4.6875   -3.5750    0.0000 O   0  0  0  0  0  0  0  0  0  0  0  0
    6.1167   -2.7625    0.0000 O   0  0  0  0  0  0  0  0  0  0  0  0
    5.4042   -6.4750    0.0000 Au  0  0  0  0  0  1  0  0  0  0  0  0
    7.5542   -3.5792    0.0000 C   0  0  0  0  0  0  0  0  0  0  0  0
    8.2792   -3.9917    0.0000 O   0  0  0  0  0  0  0  0  0  0  0  0
  2  1  1  0
  3  1  1  0
  4  2  1  0
  5  3  1  0
  6  5  1  0
  7  2  1  0
  1  8  1  6
  3  9  1  1
  5 10  1  6
 11  7  1  0
  6 12  1  1
 13 12  1  0
  4  6  1  0
M  END
>  <ID>  (2351) 


>  <MOLENAME>  (2351) 
AUROTHIOGLUCOSE

>  <therap>  (2351) 
antirheumatic

>  <ref>  (2351) 
Fed Proc 36:143 (1977); Clin Rheumatol 5:359 (1986); 13:60 (1994)

>  <cas#>  (2351) 
12192-57-3

>  <source>  (2351) 
synthetic

>  <status>  (2351) 
USP

>  <tradename>  (2351) 
SOLGANAL

>  <SMILES>  (2351) 
OC[C@H]1OC(S[Au])[C@H](O)[C@@H](O)[C@@H]1O

>  <standardized_failed>  (2351) 
True

$$$$

     RDKit          2D

 15 14  0  0  0  0  0  0  0  0999 V2000
    3.2167    1.6375    0.0000 C   0  0  0  0  0  0  0  0  0  0  0  0
    3.2167    0.8875    0.0000 C   0  0  0  0  0  0  0  0  0  0  0  0
    2.5667   -0.2375    0.0000 C   0  0  0  0  0  0  0  0  0  0  0  0
    2.5667    0.5125    0.0000 C   0  0  0  0  0  0  0  0  0  0  0  0
    2.5667    2.0167    0.0000 O   0  0  0  0  0  0  0  0  0  0  0  0
    3.2167   -0.6167    0.0000 C   0  0  0  0  0  0  0  0  0  0  0  0
    1.9167   -0.6167    0.0000 C   0  0  0  0  0  0  0  0  0  0  0  0
    2.5667   -1.7500    0.0000 C   0  0  0  0  0  0  0  0  0  0  0  0
    3.8625    2.0167    0.0000 O   0  0  0  0  0  0  0  0  0  0  0  0
    3.2167   -1.3750    0.0000 C   0  0  0  0  0  0  0  0  0  0  0  0
    1.9167   -1.3750    0.0000 C   0  0  0  0  0  0  0  0  0  0  0  0
    2.5667   -2.5000    0.0000 Cl  0  0  0  0  0  0  0  0  0  0  0  0
   -0.0708    1.7833    0.0000 Cl  0  0  0  0  0  0  0  0  0  0  0  0
    1.9167    1.6375    0.0000 N   0  0  0  0  0  0  0  0  0  0  0  0
    1.9167    0.8875    0.0000 C   0  0  0  0  0  0  0  0  0  0  0  0
  2  1  1  0
  3  4  1  0
  4  2  1  0
  5  1  2  0
  6  3  2  0
  7  3  1  0
  8 11  1  0
  9  1  1  0
 10  6  1  0
 11  7  2  0
 12  8  1  0
 14 15  1  0
 15  4  1  0
 10  8  2  0
M  END
>  <ID>  (2352) 


>  <MOLENAME>  (2352) 
BACLOFEN HYDROCHLORIDE (+/-)

>  <therap>  (2352) 
muscle relaxant (skeletal)

>  <ref>  (2352) 
Drugs 8:1 (`974); N Engl J Med 343:625 (2000)

>  <cas#>  (2352) 
70206-22-3

>  <source>  (2352) 
synthetic

>  <status>  (2352) 
USP, INN, BAN, JAN

>  <tradename>  (2352) 
KEMSTRO

>  <SMILES>  (2352) 
NCC(CC(=O)O)c1ccc(Cl)cc1

>  <standardized_failed>  (2352) 
False

$$$$

     RDKit          2D

 40 41  0  0  0  0  0  0  0  0999 V2000
   -0.3375   -2.4292    0.0000 C   0  0  0  0  0  0  0  0  0  0  0  0
   11.6917   -2.2750    0.0000 C   0  0  0  0  0  0  0  0  0  0  0  0
    0.2625   -2.1167    0.0000 C   0  0  0  0  0  0  0  0  0  0  0  0
   10.9417   -2.6167    0.0000 C   0  0  0  0  0  0  0  0  0  0  0  0
   -0.3375   -3.1792    0.0000 C   0  0  0  0  0  0  0  0  0  0  0  0
   11.6917   -1.5250    0.0000 C   0  0  0  0  0  0  0  0  0  0  0  0
   -1.0000   -2.0417    0.0000 C   0  0  0  0  0  0  0  0  0  0  0  0
   12.3375   -2.6500    0.0000 C   0  0  0  0  0  0  0  0  0  0  0  0
    0.8375   -2.4792    0.0000 C   0  0  0  0  0  0  0  0  0  0  0  0
   10.3417   -2.2042    0.0000 C   0  0  0  0  0  0  0  0  0  0  0  0
    2.6125   -2.2167    0.0000 C   0  0  0  0  0  0  0  0  0  0  0  0
    8.3542   -2.5667    0.0000 C   0  0  0  0  0  0  0  0  0  0  0  0
    9.6792   -2.5792    0.0000 C   0  0  0  0  0  0  0  0  0  0  0  0
    1.4375   -2.1667    0.0000 C   0  0  0  0  0  0  0  0  0  0  0  0
    3.8250   -2.2042    0.0000 C   0  0  0  0  0  0  0  0  0  0  0  0
    7.0292   -2.5542    0.0000 C   0  0  0  0  0  0  0  0  0  0  0  0
    2.0042   -2.5292    0.0000 C   0  0  0  0  0  0  0  0  0  0  0  0
    9.0250   -2.1917    0.0000 C   0  0  0  0  0  0  0  0  0  0  0  0
    7.7000   -2.1792    0.0000 C   0  0  0  0  0  0  0  0  0  0  0  0
    3.1875   -2.5792    0.0000 C   0  0  0  0  0  0  0  0  0  0  0  0
    4.4667   -2.5667    0.0000 C   0  0  0  0  0  0  0  0  0  0  0  0
    6.3875   -2.1792    0.0000 C   0  0  0  0  0  0  0  0  0  0  0  0
    5.7500   -2.5542    0.0000 C   0  0  0  0  0  0  0  0  0  0  0  0
    5.1042   -2.1917    0.0000 C   0  0  0  0  0  0  0  0  0  0  0  0
   -1.0000   -3.5542    0.0000 C   0  0  0  0  0  0  0  0  0  0  0  0
   12.3375   -1.1500    0.0000 C   0  0  0  0  0  0  0  0  0  0  0  0
   -1.6375   -2.4292    0.0000 C   0  0  0  0  0  0  0  0  0  0  0  0
   12.9875   -2.2750    0.0000 C   0  0  0  0  0  0  0  0  0  0  0  0
    0.3125   -3.5542    0.0000 C   0  0  0  0  0  0  0  0  0  0  0  0
   11.0417   -1.1500    0.0000 C   0  0  0  0  0  0  0  0  0  0  0  0
   -0.5458   -1.3917    0.0000 C   0  0  0  0  0  0  0  0  0  0  0  0
   -1.3750   -1.3917    0.0000 C   0  0  0  0  0  0  0  0  0  0  0  0
   12.8500   -3.3375    0.0000 C   0  0  0  0  0  0  0  0  0  0  0  0
   11.9625   -3.3000    0.0000 C   0  0  0  0  0  0  0  0  0  0  0  0
   -1.6375   -3.1792    0.0000 C   0  0  0  0  0  0  0  0  0  0  0  0
   12.9875   -1.5250    0.0000 C   0  0  0  0  0  0  0  0  0  0  0  0
    9.6750   -3.3292    0.0000 C   0  0  0  0  0  0  0  0  0  0  0  0
    1.4750   -1.4167    0.0000 C   0  0  0  0  0  0  0  0  0  0  0  0
    3.8250   -1.4542    0.0000 C   0  0  0  0  0  0  0  0  0  0  0  0
    7.0375   -3.3042    0.0000 C   0  0  0  0  0  0  0  0  0  0  0  0
  2  4  1  0
  3  1  1  0
  4 10  2  0
  5  1  2  0
  6  2  2  0
  7  1  1  0
  8  2  1  0
  9  3  2  0
 10 13  1  0
 11 17  1  0
 12 19  2  0
 13 18  2  0
 14  9  1  0
 15 20  1  0
 16 22  2  0
 17 14  2  0
 18 12  1  0
 19 16  1  0
 20 11  2  0
 21 15  2  0
 22 23  1  0
 23 24  2  0
 24 21  1  0
 25  5  1  0
 26  6  1  0
 27  7  1  0
 28  8  1  0
 29  5  1  0
 30  6  1  0
 31  7  1  0
 32  7  1  0
 33  8  1  0
 34  8  1  0
 35 27  1  0
 36 28  1  0
 37 13  1  0
 38 14  1  0
 39 15  1  0
 40 16  1  0
 35 25  1  0
 26 36  1  0
M  END
>  <ID>  (2353) 


>  <MOLENAME>  (2353) 
beta-CAROTENE [2mM]

>  <therap>  (2353) 
antioxidant; provitamin A

>  <ref>  (2353) 
Nature 290:201 (1981); Atherosclerosis 112:187 (1995); J Am Coll Nutrition 18:426 (1999)

>  <cas#>  (2353) 
7235-40-7

>  <source>  (2353) 
provitamin A; widespread in plants and animals

>  <status>  (2353) 
USP, INN

>  <tradename>  (2353) 
SOLATENE

>  <SMILES>  (2353) 
CC1=C(/C=C/C(C)=C/C=C/C(C)=C/C=C/C=C(C)/C=C/C=C(C)/C=C/C2=C(C)CCCC2(C)C)C(C)(C)CCC1

>  <standardized_failed>  (2353) 
False

$$$$

     RDKit          2D

 52 52  0  0  0  0  0  0  0  0999 V2000
    5.3042    0.7875    0.0000 C   0  0  0  0  0  0  0  0  0  0  0  0
    6.9417    0.7375    0.0000 N   0  0  0  0  0  0  0  0  0  0  0  0
    7.7542    1.0875    0.0000 C   0  0  0  0  0  0  0  0  0  0  0  0
    4.4792    0.7875    0.0000 N   0  0  0  0  0  0  0  0  0  0  0  0
    6.0667    1.1125    0.0000 C   0  0  0  0  0  0  0  0  0  0  0  0
    2.5542    2.1250    0.0000 S   0  0  0  0  0  0  0  0  0  0  0  0
    4.7917   -1.4167    0.0000 N   0  0  0  0  0  0  0  0  0  0  0  0
    6.7292   -1.9500    0.0000 N   0  0  0  0  0  0  0  0  0  0  0  0
    4.0042   -0.0333    0.0000 C   0  0  0  0  0  0  0  0  0  0  0  0
    4.9792   -2.4500    0.0000 C   0  0  0  0  0  0  0  0  0  0  0  0
    4.1667   -0.8250    0.0000 C   0  0  0  0  0  0  0  0  0  0  0  0
    7.5292   -2.2875    0.0000 C   0  0  0  0  0  0  0  0  0  0  0  0
    5.9167   -2.4500    0.0000 C   0  0  0  0  0  0  0  0  0  0  0  0
    8.2542    0.5833    0.0000 C   0  0  0  0  0  0  0  0  0  0  0  0
    8.4542    2.2042    0.0000 N   0  0  0  0  0  0  0  0  0  0  0  0
    8.4542    3.0250    0.0000 C   0  0  0  0  0  0  0  0  0  0  0  0
    7.7417    1.8000    0.0000 C   0  0  0  0  0  0  0  0  0  0  0  0
    8.2542   -0.2917    0.0000 N   0  0  0  0  0  0  0  0  0  0  0  0
    5.4792    0.0208    0.0000 C   0  0  0  0  0  0  0  0  0  0  0  0
    8.2917   -1.7792    0.0000 C   0  0  0  0  0  0  0  0  0  0  0  0
    6.6667   -0.7917    0.0000 C   0  0  0  0  0  0  0  0  0  0  0  0
    1.9042   -0.8542    0.0000 C   0  0  0  0  0  0  0  0  0  0  0  0
    7.7417    3.4375    0.0000 N   0  0  0  0  0  0  0  0  0  0  0  0
    6.4042    0.0208    0.0000 N   0  0  0  0  0  0  0  0  0  0  0  0
    1.3167   -1.2250    0.0000 C   0  0  0  0  0  0  0  0  0  0  0  0
    9.1667    3.4375    0.0000 N   0  0  0  0  0  0  0  0  0  0  0  0
    2.5500    2.7042    0.0000 O   0  0  0  0  0  0  0  0  0  0  0  0
    1.9875    2.1250    0.0000 O   0  0  0  0  0  0  0  0  0  0  0  0
    8.6667   -1.0792    0.0000 C   0  0  0  0  0  0  0  0  0  0  0  0
    3.3792   -0.8417    0.0000 C   0  0  0  0  0  0  0  0  0  0  0  0
    2.6792   -1.3542    0.0000 N   0  0  0  0  0  0  0  0  0  0  0  0
    6.0292    1.8000    0.0000 O   0  0  0  0  0  0  0  0  0  0  0  0
    4.5417   -3.1042    0.0000 O   0  0  0  0  0  0  0  0  0  0  0  0
    3.3542   -0.0333    0.0000 O   0  0  0  0  0  0  0  0  0  0  0  0
    7.5292   -3.0375    0.0000 O   0  0  0  0  0  0  0  0  0  0  0  0
    8.9417    0.8625    0.0000 O   0  0  0  0  0  0  0  0  0  0  0  0
    6.2167   -1.3542    0.0000 O   0  0  0  0  0  0  0  0  0  0  0  0
    2.5500    1.5583    0.0000 O   0  0  0  0  0  0  0  0  0  0  0  0
    3.1167    2.1250    0.0000 O   0  0  0  0  0  0  0  0  0  0  0  0
    1.9042   -0.1292    0.0000 O   0  0  0  0  0  0  0  0  0  0  0  0
    7.4792   -0.7917    0.0000 N   0  0  0  0  0  0  0  0  0  0  0  0
    8.8417   -2.3125    0.0000 N   0  0  0  0  0  0  0  0  0  0  0  0
    7.0292    2.2042    0.0000 C   0  0  0  0  0  0  0  0  0  0  0  0
    7.0292    3.0333    0.0000 C   0  0  0  0  0  0  0  0  0  0  0  0
    5.9167   -3.2625    0.0000 C   0  0  0  0  0  0  0  0  0  0  0  0
    0.6292   -0.8250    0.0000 C   0  0  0  0  0  0  0  0  0  0  0  0
   -0.1458   -1.2875    0.0000 N   0  0  0  0  0  0  0  0  0  0  0  0
    0.7042    1.7708    0.0000 N   0  0  0  0  0  0  0  0  0  0  0  0
    6.5417   -3.7000    0.0000 O   0  0  0  0  0  0  0  0  0  0  0  0
   -0.0833    1.3625    0.0000 C   0  0  0  0  0  0  0  0  0  0  0  0
    0.6042    0.0500    0.0000 C   0  0  0  0  0  0  0  0  0  0  0  0
   -0.0833    0.4875    0.0000 C   0  0  0  0  0  0  0  0  0  0  0  0
  2  5  1  0
  3  2  1  0
  4  1  1  0
  5  1  1  0
  7 11  1  0
  8 13  1  0
  9  4  1  0
 10  7  1  0
 11  9  1  0
 12 20  1  0
 13 10  1  0
 14  3  1  0
 15 17  1  0
 16 15  1  0
 17  3  1  0
 18 14  1  0
 19  1  2  0
 20 29  1  0
 21 24  1  0
 22 31  1  0
 23 44  1  0
 24 19  1  0
 25 22  1  0
 26 16  2  0
 27  6  2  0
 28  6  2  0
 29 18  1  0
 30 11  1  0
 31 30  1  0
 32  5  2  0
 33 10  2  0
 34  9  2  0
 35 12  2  0
 36 14  2  0
 37 21  2  0
 38  6  1  0
 39  6  1  0
 40 22  2  0
 41 21  1  0
 42 20  1  0
 43 17  1  0
 44 43  1  0
 45 13  1  0
 46 25  1  0
 47 46  1  0
 48 50  1  0
 49 45  1  0
 50 52  1  0
 51 46  1  0
 52 51  1  0
 23 16  1  0
  8 12  1  0
M  END
>  <ID>  (2354) 


>  <MOLENAME>  (2354) 
CAPREOMYCIN SULFATE [4mM]

>  <therap>  (2354) 
antibacterial, tuberculostatic

>  <ref>  (2354) 
Ann NY Acad Sci 135:947, 960 (1966); Antibiot Chemother 16:27 (1970)

>  <cas#>  (2354) 
1405-37-4

>  <source>  (2354) 
 Streptomyces capreolis; 34977; 10% aqueous DMSO

>  <status>  (2354) 
USP, INN, BAN, JAN

>  <tradename>  (2354) 
CAPASTAT

>  <SMILES>  (2354) 
N=C1NCCC(C2NC(=O)/C(=C\NC(N)=O)NC(=O)C(CNC(=O)CC(N)CCCN)NC(=O)C(CO)NC(=O)C(N)CNC2=O)N1

>  <standardized_failed>  (2354) 
False

$$$$

     RDKit          2D

 29 31  0  0  0  0  0  0  0  0999 V2000
    0.3500    2.4208    0.0000 C   0  0  0  0  0  0  0  0  0  0  0  0
    1.6417    2.6833    0.0000 C   0  0  0  0  0  0  0  0  0  0  0  0
    0.0167    1.8833    0.0000 C   0  0  0  0  0  0  0  0  0  0  0  0
    2.1875    2.3708    0.0000 C   0  0  0  0  0  0  0  0  0  0  0  0
    0.0292    2.9583    0.0000 C   0  0  0  0  0  0  0  0  0  0  0  0
    1.6417    3.3083    0.0000 C   0  0  0  0  0  0  0  0  0  0  0  0
    0.9667    2.3958    0.0000 C   0  0  0  0  0  0  0  0  0  0  0  0
   -0.6083    2.9708    0.0000 O   0  0  0  0  0  0  0  0  0  0  0  0
    2.1875    3.6333    0.0000 O   0  0  0  0  0  0  0  0  0  0  0  0
   -0.6208    1.8917    0.0000 C   0  0  0  0  0  0  0  0  0  0  0  0
    2.7417    2.6833    0.0000 C   0  0  0  0  0  0  0  0  0  0  0  0
   -0.9333    2.4333    0.0000 C   0  0  0  0  0  0  0  0  0  0  0  0
    2.7417    3.3083    0.0000 C   0  0  0  0  0  0  0  0  0  0  0  0
    0.3625    3.4958    0.0000 O   0  0  0  0  0  0  0  0  0  0  0  0
    1.0792    3.6208    0.0000 O   0  0  0  0  0  0  0  0  0  0  0  0
    2.1875    1.7500    0.0000 O   0  0  0  0  0  0  0  0  0  0  0  0
    0.3292    1.3333    0.0000 O   0  0  0  0  0  0  0  0  0  0  0  0
    3.3000    2.3708    0.0000 C   0  0  0  0  0  0  0  0  0  0  0  0
   -0.9458    1.3500    0.0000 C   0  0  0  0  0  0  0  0  0  0  0  0
    2.6667    0.9250    0.0000 N   0  0  0  0  0  0  0  0  0  0  0  0
   -1.5708    2.4375    0.0000 C   0  0  0  0  0  0  0  0  0  0  0  0
    3.3000    3.6333    0.0000 C   0  0  0  0  0  0  0  0  0  0  0  0
    3.6375    0.3833    0.0000 O   0  0  0  0  0  0  0  0  0  0  0  0
    3.1500    1.2000    0.0000 C   0  0  0  0  0  0  0  0  0  0  0  0
    3.6375    0.9333    0.0000 C   0  0  0  0  0  0  0  0  0  0  0  0
   -1.5833    1.3583    0.0000 C   0  0  0  0  0  0  0  0  0  0  0  0
    3.8500    2.6833    0.0000 C   0  0  0  0  0  0  0  0  0  0  0  0
   -1.8958    1.9083    0.0000 C   0  0  0  0  0  0  0  0  0  0  0  0
    3.8500    3.3083    0.0000 C   0  0  0  0  0  0  0  0  0  0  0  0
  2  7  1  0
  3  1  2  0
  4  2  2  0
  5  1  1  0
  6  2  1  0
  7  1  1  0
  8  5  1  0
  9  6  1  0
 10  3  1  0
 11  4  1  0
 12  8  1  0
 13 11  2  0
 14  5  2  0
 15  6  2  0
 16  4  1  0
 17  3  1  0
 18 11  1  0
 19 10  2  0
 21 12  2  0
 22 13  1  0
 23 25  1  0
 24 20  1  0
 25 24  1  0
 26 19  1  0
 27 18  2  0
 28 21  1  0
 29 22  2  0
 10 12  1  0
 28 26  2  0
  9 13  1  0
 27 29  1  0
M  END
>  <ID>  (2355) 


>  <MOLENAME>  (2355) 
DICUMAROL

>  <therap>  (2355) 
anticoagulant

>  <ref>  (2355) 
J Biol Chem 138:21, 513, 529 (1041); 142:941 (1942)

>  <cas#>  (2355) 
66-76-2 (acid)

>  <source>  (2355) 
synthetic; ethanolamine salt

>  <status>  (2355) 
USAN, INN

>  <tradename>  (2355) 
DICUMOL

>  <SMILES>  (2355) 
O=c1oc2ccccc2c(O)c1Cc1c(O)c2c(cccc2)oc1=O

>  <standardized_failed>  (2355) 
False

$$$$

     RDKit          2D

 40 42  0  0  0  0  0  0  0  0999 V2000
    4.5667   -2.6292    0.0000 C   0  0  0  0  0  0  0  0  0  0  0  0
    3.4667   -1.1167    0.0000 C   0  0  0  0  0  0  0  0  0  0  0  0
    2.8792   -0.5292    0.0000 C   0  0  0  0  0  0  0  0  0  0  0  0
    4.8417   -3.4125    0.0000 C   0  0  0  0  0  0  0  0  0  0  0  0
    3.9000    0.4708    0.0000 C   0  0  0  0  0  0  0  0  0  0  0  0
    3.7542   -2.6542    0.0000 C   0  0  0  0  0  0  0  0  0  0  0  0
    5.8500   -2.0042    0.0000 C   0  0  0  0  0  0  0  0  0  0  0  0
    3.0917    0.2500    0.0000 C   0  0  0  0  0  0  0  0  0  0  0  0
    6.3042   -1.3250    0.0000 C   0  0  0  0  0  0  0  0  0  0  0  0
    4.2625   -0.9042    0.0000 C   0  0  0  0  0  0  0  0  0  0  0  0
    4.4792   -0.1125    0.0000 C   0  0  0  0  0  0  0  0  0  0  0  0
    7.1292   -1.3792    0.0000 C   0  0  0  0  0  0  0  0  0  0  0  0
    4.9167   -2.0125    0.0000 O   0  0  0  0  0  0  0  0  0  0  0  0
    3.3250   -1.9417    0.0000 O   0  0  0  0  0  0  0  0  0  0  0  0
    6.2042   -2.7417    0.0000 O   0  0  0  0  0  0  0  0  0  0  0  0
    3.5167   -3.4417    0.0000 O   0  0  0  0  0  0  0  0  0  0  0  0
    7.4917   -2.1167    0.0000 C   0  0  0  0  0  0  0  0  0  0  0  0
    7.0292   -2.8042    0.0000 C   0  0  0  0  0  0  0  0  0  0  0  0
    4.2042   -3.9042    0.0000 C   0  0  0  0  0  0  0  0  0  0  0  0
    2.0792   -0.7250    0.0000 N   0  0  0  0  0  0  0  0  0  0  0  0
    4.1167    1.2708    0.0000 N   0  0  0  0  0  0  0  0  0  0  0  0
    4.9167    1.4833    0.0000 C   0  0  0  0  0  0  0  0  0  0  0  0
    1.2667   -0.3750    0.0000 C   0  0  0  0  0  0  0  0  0  0  0  0
    5.1292    2.2708    0.0000 N   0  0  0  0  0  0  0  0  0  0  0  0
    1.3042    0.3333    0.0000 N   0  0  0  0  0  0  0  0  0  0  0  0
    6.0917   -0.6625    0.0000 N   0  0  0  0  0  0  0  0  0  0  0  0
    5.6375   -3.1667    0.0000 O   0  0  0  0  0  0  0  0  0  0  0  0
    2.5042    0.8208    0.0000 O   0  0  0  0  0  0  0  0  0  0  0  0
    5.0167   -1.0667    0.0000 O   0  0  0  0  0  0  0  0  0  0  0  0
    5.1792    0.0833    0.0000 O   0  0  0  0  0  0  0  0  0  0  0  0
    7.6000   -0.6917    0.0000 O   0  0  0  0  0  0  0  0  0  0  0  0
    5.5042    0.8958    0.0000 N   0  0  0  0  0  0  0  0  0  0  0  0
    0.4917   -0.8167    0.0000 N   0  0  0  0  0  0  0  0  0  0  0  0
    4.9542   -4.2292    0.0000 C   0  0  0  0  0  0  0  0  0  0  0  0
    8.3125   -2.1792    0.0000 O   0  0  0  0  0  0  0  0  0  0  0  0
    7.3917   -3.5500    0.0000 C   0  0  0  0  0  0  0  0  0  0  0  0
    5.7167   -4.5417    0.0000 O   0  0  0  0  0  0  0  0  0  0  0  0
    6.9292   -4.2292    0.0000 O   0  0  0  0  0  0  0  0  0  0  0  0
    4.2292   -4.7292    0.0000 C   0  0  0  0  0  0  0  0  0  0  0  0
    6.7917   -0.1667    0.0000 C   0  0  0  0  0  0  0  0  0  0  0  0
  2 14  1  6
  3  2  1  0
  4  1  1  0
  5 11  1  0
  6  1  1  0
  7 13  1  0
  8  3  1  0
  9  7  1  0
 10  2  1  0
 11 10  1  0
 12  9  1  0
 13  1  1  0
  6 14  1  1
 15  7  1  0
 16  6  1  0
 17 18  1  0
 18 15  1  0
 19  4  1  0
  3 20  1  1
  5 21  1  1
 22 21  1  0
 23 20  1  0
 24 22  2  0
 25 23  2  0
  9 26  1  1
  4 27  1  6
  8 28  1  6
 10 29  1  1
 11 30  1  6
 31 12  1  0
 32 22  1  0
 33 23  1  0
  4 34  1  0
 35 17  1  0
 36 18  1  0
 37 34  1  0
 38 36  1  0
 39 19  1  0
 40 26  1  0
 16 19  1  0
 17 12  1  0
  8  5  1  0
M  END
>  <ID>  (2356) 


>  <MOLENAME>  (2356) 
DIHYDROSTREPTOMYCIN [5mM]

>  <therap>  (2356) 
antibacterial, tuberculostatic

>  <ref>  (2356) 
Antibiotics (1979), 5(1), 272-303; J. Bacteriol. (1947), 53, 205-11; J. Am. Chem. Soc. (1946), 68, 1390-1

>  <cas#>  (2356) 
128-46-1

>  <source>  (2356) 
Streptomyces humidus; 10% aqueous DMSO

>  <status>  (2356) 
USP, INN, BAN, JAN

>  <tradename>  (2356) 
nan

>  <SMILES>  (2356) 
CN[C@@H]1C(OC2[C@H](O[C@@H]3[C@@H](NC(=N)N)[C@H](O)[C@@H](NC(=N)N)[C@H](O)[C@H]3O)OC(C)[C@]2(O)CO)OC(CO)C(O)C1O

>  <standardized_failed>  (2356) 
False

$$$$

     RDKit          2D

 25 26  0  0  0  0  0  0  0  0999 V2000
    5.2000   -1.2167    0.0000 C   0  0  0  0  0  0  0  0  0  0  0  0
    5.9500   -1.2167    0.0000 C   0  0  0  0  0  0  0  0  0  0  0  0
    4.4500   -1.2167    0.0000 C   0  0  0  0  0  0  0  0  0  0  0  0
    3.3250   -0.5667    0.0000 N   0  0  0  0  0  0  0  0  0  0  0  0
    4.0750   -0.5667    0.0000 C   0  0  0  0  0  0  0  0  0  0  0  0
    5.2000   -1.9667    0.0000 C   0  0  0  0  0  0  0  0  0  0  0  0
    5.2000   -0.4667    0.0000 C   0  0  0  0  0  0  0  0  0  0  0  0
    4.5500   -2.3417    0.0000 N   0  0  0  0  0  0  0  0  0  0  0  0
    6.3250   -0.5667    0.0000 O   0  0  0  0  0  0  0  0  0  0  0  0
    6.3250   -1.8625    0.0000 N   0  0  0  0  0  0  0  0  0  0  0  0
    2.9500    0.0750    0.0000 C   0  0  0  0  0  0  0  0  0  0  0  0
    2.9500   -1.2167    0.0000 C   0  0  0  0  0  0  0  0  0  0  0  0
    4.5500   -3.0917    0.0000 C   0  0  0  0  0  0  0  0  0  0  0  0
    5.8417   -2.3417    0.0000 C   0  0  0  0  0  0  0  0  0  0  0  0
    5.8500   -0.0917    0.0000 C   0  0  0  0  0  0  0  0  0  0  0  0
    4.5542   -0.0917    0.0000 C   0  0  0  0  0  0  0  0  0  0  0  0
    3.3250    0.7250    0.0000 C   0  0  0  0  0  0  0  0  0  0  0  0
    2.1958    0.0750    0.0000 C   0  0  0  0  0  0  0  0  0  0  0  0
    2.1958   -1.2167    0.0000 C   0  0  0  0  0  0  0  0  0  0  0  0
    3.3250   -1.8667    0.0000 C   0  0  0  0  0  0  0  0  0  0  0  0
    5.2000   -3.4667    0.0000 C   0  0  0  0  0  0  0  0  0  0  0  0
    5.8500    0.6583    0.0000 C   0  0  0  0  0  0  0  0  0  0  0  0
    4.5542    0.6583    0.0000 C   0  0  0  0  0  0  0  0  0  0  0  0
    5.8417   -3.0917    0.0000 C   0  0  0  0  0  0  0  0  0  0  0  0
    5.2000    1.0333    0.0000 C   0  0  0  0  0  0  0  0  0  0  0  0
  2  1  1  0
  3  1  1  0
  4  5  1  0
  5  3  1  0
  6  1  1  0
  7  1  1  0
  8  6  2  0
  9  2  2  0
 10  2  1  0
 11  4  1  0
 12  4  1  0
 13  8  1  0
 14  6  1  0
 15  7  2  0
 16  7  1  0
 17 11  1  0
 18 11  1  0
 19 12  1  0
 20 12  1  0
 21 24  1  0
 22 15  1  0
 23 16  2  0
 24 14  2  0
 25 23  1  0
 22 25  2  0
 13 21  2  0
M  END
>  <ID>  (2357) 


>  <MOLENAME>  (2357) 
DISOPYRAMIDE

>  <therap>  (2357) 
antiarrhythmic

>  <ref>  (2357) 
Angiology (1987), 38(2 Pt 2), 174-83; Ann. Intern. Med. (1982), 96(3), 337-43; J. Pharmacol. Exp. Ther. (1962), 136(1), 114-24

>  <cas#>  (2357) 
3737-09-5 

>  <source>  (2357) 
synthetic; SC-13957

>  <status>  (2357) 
USP, INN, BAN, JAN

>  <tradename>  (2357) 
NORPACE

>  <SMILES>  (2357) 
CC(C)N(CCC(C(N)=O)(c1ccccc1)c1ncccc1)C(C)C

>  <standardized_failed>  (2357) 
False

$$$$

     RDKit          2D

 36 31  0  0  0  0  0  0  0  0999 V2000
    0.9667    1.3000    0.0000 C   0  0  0  0  0  0  0  0  0  0  0  0
    1.2042   -0.9417    0.0000 C   0  0  0  0  0  0  0  0  0  0  0  0
    4.9917    0.1958    0.0000 C   0  0  0  0  0  0  0  0  0  0  0  0
    3.1667   -1.1250    0.0000 C   0  0  0  0  0  0  0  0  0  0  0  0
    1.7292    0.2458    0.0000 N   0  0  0  0  0  0  0  0  0  0  0  0
    3.7042    0.0625    0.0000 N   0  0  0  0  0  0  0  0  0  0  0  0
    0.5917   -1.3792    0.0000 O   0  0  0  0  0  0  0  0  0  0  0  0
    0.3667    0.8625    0.0000 O   0  0  0  0  0  0  0  0  0  0  0  0
    2.4917   -0.8125    0.0000 O   0  0  0  0  0  0  0  0  0  0  0  0
    5.6042    0.6333    0.0000 O   0  0  0  0  0  0  0  0  0  0  0  0
    1.1292   -0.1917    0.0000 C   0  0  0  0  0  0  0  0  0  0  0  0
    1.6542    0.9875    0.0000 C   0  0  0  0  0  0  0  0  0  0  0  0
    3.7792   -0.6792    0.0000 C   0  0  0  0  0  0  0  0  0  0  0  0
    4.3167    0.5000    0.0000 C   0  0  0  0  0  0  0  0  0  0  0  0
    3.0167    0.3750    0.0000 C   0  0  0  0  0  0  0  0  0  0  0  0
    2.4167   -0.0625    0.0000 C   0  0  0  0  0  0  0  0  0  0  0  0
    5.0667   -0.5500    0.0000 O   0  0  0  0  0  0  0  0  0  0  0  0
    3.2417   -1.8625    0.0000 O   0  0  0  0  0  0  0  0  0  0  0  0
    0.8917    2.0500    0.0000 O   0  0  0  0  0  0  0  0  0  0  0  0
    1.8792   -1.2500    0.0000 O   0  0  0  0  0  0  0  0  0  0  0  0
   -0.5208   -2.7750    0.0000 N   0  0  0  0  0  0  0  0  0  0  0  0
    1.7292    2.8458    0.0000 N   0  0  0  0  0  0  0  0  0  0  0  0
    6.4417    0.8208    0.0000 N   0  0  0  0  0  0  0  0  0  0  0  0
    4.3792   -2.3292    0.0000 N   0  0  0  0  0  0  0  0  0  0  0  0
    0.6292   -3.4292    0.0000 O   0  0  0  0  0  0  0  0  0  0  0  0
    7.5875    0.1625    0.0000 O   0  0  0  0  0  0  0  0  0  0  0  0
    2.8750    2.1833    0.0000 O   0  0  0  0  0  0  0  0  0  0  0  0
    5.5292   -2.9917    0.0000 O   0  0  0  0  0  0  0  0  0  0  0  0
    0.0542   -2.4417    0.0000 C   0  0  0  0  0  0  0  0  0  0  0  0
    2.3000    3.1750    0.0000 C   0  0  0  0  0  0  0  0  0  0  0  0
    4.9542   -2.0000    0.0000 C   0  0  0  0  0  0  0  0  0  0  0  0
    7.0125    1.1583    0.0000 C   0  0  0  0  0  0  0  0  0  0  0  0
    0.6292   -2.7667    0.0000 C   0  0  0  0  0  0  0  0  0  0  0  0
    7.5875    0.8250    0.0000 C   0  0  0  0  0  0  0  0  0  0  0  0
    5.5292   -2.3292    0.0000 C   0  0  0  0  0  0  0  0  0  0  0  0
    2.8750    2.8458    0.0000 C   0  0  0  0  0  0  0  0  0  0  0  0
  2 11  1  0
  3 14  1  0
  4 13  1  0
  5 12  1  0
  6 15  1  0
  7  2  2  0
  8  1  2  0
  9  4  2  0
 10  3  2  0
 11  5  1  0
 12  1  1  0
 13  6  1  0
 14  6  1  0
 15 16  1  0
 16  5  1  0
 17  3  1  0
 18  4  1  0
 19  1  1  0
 20  2  1  0
 25 33  1  0
 26 34  1  0
 27 36  1  0
 28 35  1  0
 29 21  1  0
 30 22  1  0
 31 24  1  0
 32 23  1  0
 33 29  1  0
 34 32  1  0
 35 31  1  0
 36 30  1  0
M  END
>  <ID>  (2358) 


>  <MOLENAME>  (2358) 
ETHYLENEDIAMINE TETRACETATE TETRA-ETHANOLAMINE

>  <therap>  (2358) 
chelating agent, antioxidant

>  <ref>  (2358) 
Int J Toxicol 21 Suppl 2:95 (2002)

>  <cas#>  (2358) 
nan

>  <source>  (2358) 
synthetic; 10% aqueous DMSO

>  <status>  (2358) 
USAN

>  <tradename>  (2358) 
LIMCLAIR

>  <SMILES>  (2358) 
NCCO.NCCO.NCCO.NCCO.O=C(O)CN(CCN(CC(=O)O)CC(=O)O)CC(=O)O

>  <standardized_failed>  (2358) 
False

$$$$

     RDKit          2D

 33 35  0  0  0  0  0  0  0  0999 V2000
    3.6042   -1.0792    0.0000 C   0  0  0  0  0  0  0  0  0  0  0  0
    3.6042    0.2208    0.0000 C   0  0  0  0  0  0  0  0  0  0  0  0
    3.2292   -0.4292    0.0000 C   0  0  0  0  0  0  0  0  0  0  0  0
    2.1000   -2.3792    0.0000 C   0  0  0  0  0  0  0  0  0  0  0  0
    2.4750   -1.7292    0.0000 C   0  0  0  0  0  0  0  0  0  0  0  0
    1.3500   -2.3792    0.0000 C   0  0  0  0  0  0  0  0  0  0  0  0
    2.4792    0.8708    0.0000 C   0  0  0  0  0  0  0  0  0  0  0  0
    3.2250   -1.7292    0.0000 O   0  0  0  0  0  0  0  0  0  0  0  0
    3.2292    0.8708    0.0000 O   0  0  0  0  0  0  0  0  0  0  0  0
    2.1125    1.5208    0.0000 O   0  0  0  0  0  0  0  0  0  0  0  0
    0.9750   -1.7292    0.0000 C   0  0  0  0  0  0  0  0  0  0  0  0
    4.3542   -1.0792    0.0000 C   0  0  0  0  0  0  0  0  0  0  0  0
    4.3542    0.2208    0.0000 C   0  0  0  0  0  0  0  0  0  0  0  0
    2.1000   -1.0792    0.0000 O   0  0  0  0  0  0  0  0  0  0  0  0
    4.7292   -0.4167    0.0000 C   0  0  0  0  0  0  0  0  0  0  0  0
    1.3542    1.5208    0.0000 C   0  0  0  0  0  0  0  0  0  0  0  0
    1.3500   -1.0792    0.0000 C   0  0  0  0  0  0  0  0  0  0  0  0
    2.1042    0.2208    0.0000 C   0  0  0  0  0  0  0  0  0  0  0  0
    0.9750   -3.0292    0.0000 N   0  0  0  0  0  0  0  0  0  0  0  0
    0.9792    0.8708    0.0000 C   0  0  0  0  0  0  0  0  0  0  0  0
    1.3542    0.2208    0.0000 C   0  0  0  0  0  0  0  0  0  0  0  0
    2.4792   -3.0292    0.0000 O   0  0  0  0  0  0  0  0  0  0  0  0
    3.8000   -0.4167    0.0000 O   0  0  0  0  0  0  0  0  0  0  0  0
    4.7292   -1.7292    0.0000 N   0  0  0  0  0  0  0  0  0  0  0  0
    4.7375    0.8833    0.0000 N   0  0  0  0  0  0  0  0  0  0  0  0
    0.9750    2.1708    0.0000 C   0  0  0  0  0  0  0  0  0  0  0  0
    0.3625   -1.1792    0.0000 O   0  0  0  0  0  0  0  0  0  0  0  0
    0.2250    2.1708    0.0000 N   0  0  0  0  0  0  0  0  0  0  0  0
    2.4875   -0.4292    0.0000 N   0  0  0  0  0  0  0  0  0  0  0  0
    0.1750   -2.1417    0.0000 C   0  0  0  0  0  0  0  0  0  0  0  0
    0.2250   -3.0292    0.0000 C   0  0  0  0  0  0  0  0  0  0  0  0
   -0.1500    2.8208    0.0000 C   0  0  0  0  0  0  0  0  0  0  0  0
    1.3500    2.8333    0.0000 C   0  0  0  0  0  0  0  0  0  0  0  0
  2  3  1  0
  3  1  1  0
  4  5  1  0
  8  5  1  0
  6  4  1  0
  7  9  1  6
  1  8  1  6
  9  2  1  0
 10  7  1  0
 11 17  1  0
 12  1  1  0
 13 15  1  0
 14  5  1  0
 15 12  1  0
 16 10  1  0
 17 14  1  0
 18  7  1  0
  6 19  1  1
 20 21  1  0
 21 18  1  0
  4 22  1  6
  3 23  1  1
 12 24  1  1
 13 25  1  1
 16 26  1  1
 11 27  1  0
 28 26  1  0
 18 29  1  6
 11 30  1  6
 31 19  1  0
 32 28  1  0
 33 26  1  0
 13  2  1  0
 11  6  1  0
 16 20  1  0
M  END
>  <ID>  (2359) 


>  <MOLENAME>  (2359) 
GENTAMICIN

>  <therap>  (2359) 
antibacterial

>  <ref>  (2359) 
Drug Action Drug Resist. Bact. (1975), 2, 77-111; Antimicrob. Agents Chemother. (1963), 161, 138-47; J. Med. Chem. (1963), 6, 463-4

>  <cas#>  (2359) 
1403-66-3

>  <source>  (2359) 
Micromonospora spp; Sch-9724; 10% aqueous DMSO

>  <status>  (2359) 
USP, INN, BAN, JAN

>  <tradename>  (2359) 
GARAMYCIN

>  <SMILES>  (2359) 
CNC(C)[C@@H]1CC[C@@H](N)[C@@H](OC2[C@@H](N)C[C@@H](N)[C@H](OC3OC[C@](C)(O)[C@H](NC)[C@H]3O)[C@H]2O)O1

>  <standardized_failed>  (2359) 
False

$$$$

     RDKit          2D

 14 14  0  0  0  0  0  0  0  0999 V2000
    4.0292    0.2083    0.0000 C   0  0  0  0  0  0  0  0  0  0  0  0
    1.2542    0.1708    0.0000 N   0  0  0  0  0  0  0  0  0  0  0  0
    4.6667    0.6000    0.0000 N   0  0  0  0  0  0  0  0  0  0  0  0
    3.3417    0.5750    0.0000 N   0  0  0  0  0  0  0  0  0  0  0  0
    4.0250   -0.5167    0.0000 N   0  0  0  0  0  0  0  0  0  0  0  0
    2.6292    0.1708    0.0000 C   0  0  0  0  0  0  0  0  0  0  0  0
    2.0292    0.5125    0.0000 C   0  0  0  0  0  0  0  0  0  0  0  0
    1.2542   -0.5792    0.0000 C   0  0  0  0  0  0  0  0  0  0  0  0
    0.7167    0.7000    0.0000 C   0  0  0  0  0  0  0  0  0  0  0  0
    0.7167   -1.1042    0.0000 C   0  0  0  0  0  0  0  0  0  0  0  0
   -0.0333    0.7000    0.0000 C   0  0  0  0  0  0  0  0  0  0  0  0
   -0.5583    0.1708    0.0000 C   0  0  0  0  0  0  0  0  0  0  0  0
   -0.0333   -1.1042    0.0000 C   0  0  0  0  0  0  0  0  0  0  0  0
   -0.5583   -0.5792    0.0000 C   0  0  0  0  0  0  0  0  0  0  0  0
  2  7  1  0
  3  1  2  0
  4  1  1  0
  5  1  1  0
  6  4  1  0
  7  6  1  0
  8  2  1  0
  9  2  1  0
 10  8  1  0
 11  9  1  0
 12 11  1  0
 13 10  1  0
 14 12  1  0
 14 13  1  0
M  END
>  <ID>  (2360) 


>  <MOLENAME>  (2360) 
GUANETHIDINE

>  <therap>  (2360) 
antihypertensive, mitotic agent

>  <ref>  (2360) 
Br. J. Pharmacol. (1974), 51(2), 237-47; Br. J. Pharmacol. Chemother. (1967), 30(1), 155-65; Br. J. Pharmacol. Chemother. (1963), 20, 362-77

>  <cas#>  (2360) 
55-65-2

>  <source>  (2360) 
synthetic; 10% aqueous DMSO

>  <status>  (2360) 
USP, INN, BAN

>  <tradename>  (2360) 
ISMELIN

>  <SMILES>  (2360) 
N=C(N)NCCN1CCCCCCC1

>  <standardized_failed>  (2360) 
False

$$$$

     RDKit          2D

 12 13  0  0  0  0  0  0  0  0999 V2000
    3.6792    0.0083    0.0000 C   0  0  0  0  0  0  0  0  0  0  0  0
    4.3292   -0.3667    0.0000 N   0  0  0  0  0  0  0  0  0  0  0  0
    4.3292   -1.1167    0.0000 N   0  0  0  0  0  0  0  0  0  0  0  0
    3.0292   -0.3667    0.0000 C   0  0  0  0  0  0  0  0  0  0  0  0
    3.6792    0.7583    0.0000 N   0  0  0  0  0  0  0  0  0  0  0  0
    3.0292   -1.1167    0.0000 C   0  0  0  0  0  0  0  0  0  0  0  0
    3.0292    1.1333    0.0000 N   0  0  0  0  0  0  0  0  0  0  0  0
    3.6792   -1.4917    0.0000 C   0  0  0  0  0  0  0  0  0  0  0  0
    2.3792    0.0083    0.0000 C   0  0  0  0  0  0  0  0  0  0  0  0
    2.3792   -1.4917    0.0000 C   0  0  0  0  0  0  0  0  0  0  0  0
    1.7292   -0.3667    0.0000 C   0  0  0  0  0  0  0  0  0  0  0  0
    1.7292   -1.1167    0.0000 C   0  0  0  0  0  0  0  0  0  0  0  0
  2  1  2  0
  3  2  1  0
  4  1  1  0
  5  1  1  0
  6  4  2  0
  7  5  1  0
  8  6  1  0
  9  4  1  0
 10  6  1  0
 11  9  2  0
 12 11  1  0
  8  3  2  0
 10 12  2  0
M  END
>  <ID>  (2361) 


>  <MOLENAME>  (2361) 
HYDRALAZINE

>  <therap>  (2361) 
antihypertensive

>  <ref>  (2361) 
J. Clin. Hypertens. (2011), 13(9), 690-692; J. Pharm. Pharmacol. (1957), 9(12), 877-87; Angiology (1956), 7(4), 368-77

>  <cas#>  (2361) 
86-54-4

>  <source>  (2361) 
semisynthetic; 10% aqueous DMSO

>  <status>  (2361) 
USP, INN, BAN

>  <tradename>  (2361) 
APRESOLINE

>  <SMILES>  (2361) 
NNc1nncc2c1cccc2

>  <standardized_failed>  (2361) 
False

$$$$

     RDKit          2D

 13 13  0  0  0  0  0  0  0  0999 V2000
    5.8500   -4.9917    0.0000 C   0  0  0  0  0  0  0  0  0  0  0  0
    5.4375   -5.7042    0.0000 C   0  0  0  0  0  0  0  0  0  0  0  0
    4.6042   -5.7042    0.0000 C   0  0  0  0  0  0  0  0  0  0  0  0
    6.6750   -4.9917    0.0000 C   0  0  0  0  0  0  0  0  0  0  0  0
    4.1917   -4.9917    0.0000 C   0  0  0  0  0  0  0  0  0  0  0  0
    5.4375   -4.2792    0.0000 C   0  0  0  0  0  0  0  0  0  0  0  0
    4.6042   -4.2792    0.0000 C   0  0  0  0  0  0  0  0  0  0  0  0
    7.0875   -4.2750    0.0000 C   0  0  0  0  0  0  0  0  0  0  0  0
    4.1875   -6.4292    0.0000 O   0  0  0  0  0  0  0  0  0  0  0  0
    7.9167   -4.2750    0.0000 N   0  0  0  0  0  0  0  0  0  0  0  0
    7.0875   -5.7042    0.0000 O   0  0  0  0  0  0  0  0  0  0  0  0
    3.3667   -4.9917    0.0000 O   0  0  0  0  0  0  0  0  0  0  0  0
    6.6750   -3.5625    0.0000 C   0  0  0  0  0  0  0  0  0  0  0  0
  2  1  2  0
  3  2  1  0
  4  1  1  0
  5  7  1  0
  6  1  1  0
  7  6  2  0
  8  4  1  0
  9  3  1  0
  8 10  1  0
  4 11  1  6
 12  5  1  0
  8 13  1  6
  5  3  2  0
M  END
>  <ID>  (2362) 


>  <MOLENAME>  (2362) 
LEVONORDEFRIN

>  <therap>  (2362) 
vasoconstrictor

>  <ref>  (2362) 
J. Pharmacol. Exp. Ther. (1982), 222(3), 645-51; J. Pharm. Pharmacol. (1971), 23(6), 407-11; J. Pharmacol. Exp. Ther. (1967), 155(1), 1-12

>  <cas#>  (2362) 
829-74-3, 18829-78-2 [replaced]

>  <source>  (2362) 
synthetic

>  <status>  (2362) 
USP, INN

>  <tradename>  (2362) 
NEO-COBEFRIN

>  <SMILES>  (2362) 
C[C@H](N)[C@H](O)c1cc(O)c(O)cc1

>  <standardized_failed>  (2362) 
False

$$$$

     RDKit          2D

 27 28  0  0  0  0  0  0  0  0999 V2000
    7.5000   -4.6792    0.0000 N   0  0  0  0  0  0  0  0  0  0  0  0
    7.5000   -5.4292    0.0000 C   0  0  0  0  0  0  0  0  0  0  0  0
    6.7500   -4.6792    0.0000 C   0  0  0  0  0  0  0  0  0  0  0  0
    6.7500   -5.4167    0.0000 C   0  0  0  0  0  0  0  0  0  0  0  0
    8.1500   -4.3042    0.0000 C   0  0  0  0  0  0  0  0  0  0  0  0
    8.4000   -5.6292    0.0000 S   0  0  0  0  0  0  0  0  0  0  0  0
    8.7667   -4.8667    0.0000 C   0  0  0  0  0  0  0  0  0  0  0  0
    5.4375   -5.9375    0.0000 C   0  0  0  0  0  0  0  0  0  0  0  0
    6.1917   -5.9292    0.0000 N   0  0  0  0  0  0  0  0  0  0  0  0
    5.0917   -6.6042    0.0000 C   0  0  0  0  0  0  0  0  0  0  0  0
    8.1500   -3.6917    0.0000 C   0  0  0  0  0  0  0  0  0  0  0  0
    6.3417   -4.1625    0.0000 O   0  0  0  0  0  0  0  0  0  0  0  0
    5.0375   -5.1542    0.0000 O   0  0  0  0  0  0  0  0  0  0  0  0
    5.3292   -7.2417    0.0000 C   0  0  0  0  0  0  0  0  0  0  0  0
    4.1667   -6.6375    0.0000 C   0  0  0  0  0  0  0  0  0  0  0  0
    8.6500   -3.2250    0.0000 O   0  0  0  0  0  0  0  0  0  0  0  0
    7.6167   -3.2875    0.0000 O   0  0  0  0  0  0  0  0  0  0  0  0
    9.3667   -4.3792    0.0000 C   0  0  0  0  0  0  0  0  0  0  0  0
    9.4625   -5.2875    0.0000 C   0  0  0  0  0  0  0  0  0  0  0  0
    3.7542   -6.0042    0.0000 O   0  0  0  0  0  0  0  0  0  0  0  0
    6.0792   -7.2042    0.0000 O   0  0  0  0  0  0  0  0  0  0  0  0
    9.6667   -3.4292    0.0000 Na  0  0  0  0  0 15  0  0  0  0  0  0
    4.2375   -7.9417    0.0000 C   0  0  0  0  0  0  0  0  0  0  0  0
    3.8250   -7.3125    0.0000 C   0  0  0  0  0  0  0  0  0  0  0  0
    4.9792   -7.9042    0.0000 C   0  0  0  0  0  0  0  0  0  0  0  0
    6.4875   -7.8292    0.0000 C   0  0  0  0  0  0  0  0  0  0  0  0
    4.1042   -5.3417    0.0000 C   0  0  0  0  0  0  0  0  0  0  0  0
  2  1  1  0
  3  1  1  0
  4  3  1  0
  5  1  1  0
  2  6  1  6
  7  5  1  0
  8  9  1  0
  4  9  1  6
 10  8  1  0
  5 11  1  1
 12  3  2  0
 13  8  2  0
 14 10  2  0
 15 10  1  0
 16 11  1  0
 17 11  2  0
 18  7  1  0
 19  7  1  0
 20 15  1  0
 21 14  1  0
 23 24  1  0
 24 15  2  0
 25 14  1  0
 26 21  1  0
 27 20  1  0
  6  7  1  0
  2  4  1  0
 23 25  2  0
M  CHG  2  16  -1  22   1
M  END
>  <ID>  (2363) 


>  <MOLENAME>  (2363) 
METHICILLIN SODIUM

>  <therap>  (2363) 
antibacterial

>  <ref>  (2363) 
Adv. Pharmacol. Chemother. (1973), 11, 151-220; Lancet (1960), 2(7150), 564-7; Br. Med. J. (1960), 2, 694-9

>  <cas#>  (2363) 
7246-14-2, 132-92-3 [anhydrous], 61-32-5 [methicillin]

>  <source>  (2363) 
semisynthetic; BRL-1241, SQ-16123, X-1497

>  <status>  (2363) 
USAN, INN, BAN, JAN

>  <tradename>  (2363) 
STAPHCILLIN

>  <SMILES>  (2363) 
COc1c(C(=O)N[C@@H]2C(=O)N3[C@@H](C(=O)O)C(C)(C)S[C@H]23)c(OC)ccc1

>  <standardized_failed>  (2363) 
False

$$$$

     RDKit          2D

 16 16  0  0  0  0  0  0  0  0999 V2000
    4.8792   -0.4917    0.0000 N   0  0  0  0  0  0  0  0  0  0  0  0
    4.8792    0.2583    0.0000 C   0  0  0  0  0  0  0  0  0  0  0  0
    4.2292    0.6458    0.0000 N   0  0  0  0  0  0  0  0  0  0  0  0
    3.5792    0.2583    0.0000 C   0  0  0  0  0  0  0  0  0  0  0  0
    4.2292   -0.8667    0.0000 C   0  0  0  0  0  0  0  0  0  0  0  0
    3.5792   -0.4917    0.0000 C   0  0  0  0  0  0  0  0  0  0  0  0
    2.5167    0.7833    0.0000 N   0  0  0  0  0  0  0  0  0  0  0  0
    5.7667   -1.0792    0.0000 O   0  0  0  0  0  0  0  0  0  0  0  0
    5.5292    0.6333    0.0000 N   0  0  0  0  0  0  0  0  0  0  0  0
    4.2292   -1.6167    0.0000 N   0  0  0  0  0  0  0  0  0  0  0  0
    3.0167    2.2500    0.0000 Cl  0  0  0  0  0  0  0  0  0  0  0  0
    2.1417    0.1333    0.0000 C   0  0  0  0  0  0  0  0  0  0  0  0
    2.1417    1.4208    0.0000 C   0  0  0  0  0  0  0  0  0  0  0  0
    1.3917    0.1333    0.0000 C   0  0  0  0  0  0  0  0  0  0  0  0
    1.3917    1.4208    0.0000 C   0  0  0  0  0  0  0  0  0  0  0  0
    1.0167    0.7833    0.0000 C   0  0  0  0  0  0  0  0  0  0  0  0
  2  1  2  0
  3  2  1  0
  4  6  1  0
  5  1  1  0
  6  5  2  0
  7  4  1  0
  8  1  1  0
  9  2  1  0
 10  5  1  0
 12  7  1  0
 13  7  1  0
 14 12  1  0
 15 13  1  0
 16 14  1  0
  3  4  2  0
 15 16  1  0
M  CHG  2   1   1   8  -1
M  END
>  <ID>  (2364) 


>  <MOLENAME>  (2364) 
MINOXIDIL HYDROCHLORIDE

>  <therap>  (2364) 
antihypertensive, antialopecia agent

>  <ref>  (2364) 
Drugs 22:257 (1981); Int J Dermatol 24:82 (1985)

>  <cas#>  (2364) 
38304-91-5 (base)

>  <source>  (2364) 
synthetic; U-10858; 10% aqueous DMSO

>  <status>  (2364) 
USP, INN, BAN

>  <tradename>  (2364) 
ROGAINE

>  <SMILES>  (2364) 
Nc1cc(N2CCCCC2)nc(N)[n+]1[O-]

>  <standardized_failed>  (2364) 
False

$$$$

     RDKit          2D

 37 39  0  0  0  0  0  0  0  0999 V2000
    5.4250   -2.3542    0.0000 N   0  0  0  0  0  0  0  0  0  0  0  0
    4.7750   -1.9792    0.0000 C   0  0  0  0  0  0  0  0  0  0  0  0
    8.0625   -4.1917    0.0000 C   0  0  0  0  0  0  0  0  0  0  0  0
    8.6542   -3.8542    0.0000 C   0  0  0  0  0  0  0  0  0  0  0  0
    4.1250   -3.1042    0.0000 C   0  0  0  0  0  0  0  0  0  0  0  0
    4.1250   -2.3542    0.0000 C   0  0  0  0  0  0  0  0  0  0  0  0
    3.4750   -3.4792    0.0000 C   0  0  0  0  0  0  0  0  0  0  0  0
    9.2417   -4.1917    0.0000 C   0  0  0  0  0  0  0  0  0  0  0  0
    4.7750   -1.2167    0.0000 C   0  0  0  0  0  0  0  0  0  0  0  0
    7.4750   -3.8542    0.0000 C   0  0  0  0  0  0  0  0  0  0  0  0
    6.0750   -1.9792    0.0000 C   0  0  0  0  0  0  0  0  0  0  0  0
    5.4250   -0.8417    0.0000 C   0  0  0  0  0  0  0  0  0  0  0  0
    6.0750   -1.2167    0.0000 C   0  0  0  0  0  0  0  0  0  0  0  0
    5.0167   -1.6875    0.0000 C   0  0  0  0  0  0  0  0  0  0  0  0
    3.4750   -4.2292    0.0000 C   0  0  0  0  0  0  0  0  0  0  0  0
    9.8375   -3.8542    0.0000 C   0  0  0  0  0  0  0  0  0  0  0  0
    4.1250   -4.6042    0.0000 N   0  0  0  0  0  0  0  0  0  0  0  0
    2.8167   -3.1042    0.0000 C   0  0  0  0  0  0  0  0  0  0  0  0
    7.4667   -3.1792    0.0000 O   0  0  0  0  0  0  0  0  0  0  0  0
    6.7500   -0.8167    0.0000 C   0  0  0  0  0  0  0  0  0  0  0  0
    5.6750   -1.4667    0.0000 C   0  0  0  0  0  0  0  0  0  0  0  0
    8.0625   -4.8792    0.0000 O   0  0  0  0  0  0  0  0  0  0  0  0
    2.8167   -4.6042    0.0000 C   0  0  0  0  0  0  0  0  0  0  0  0
    8.6500   -3.1667    0.0000 O   0  0  0  0  0  0  0  0  0  0  0  0
    7.3917   -1.2167    0.0000 C   0  0  0  0  0  0  0  0  0  0  0  0
    9.2375   -4.8792    0.0000 O   0  0  0  0  0  0  0  0  0  0  0  0
    3.4625   -2.0042    0.0000 O   0  0  0  0  0  0  0  0  0  0  0  0
    2.1750   -3.4792    0.0000 C   0  0  0  0  0  0  0  0  0  0  0  0
    6.8792   -4.2042    0.0000 O   0  0  0  0  0  0  0  0  0  0  0  0
    4.7792   -4.2292    0.0000 C   0  0  0  0  0  0  0  0  0  0  0  0
    2.1750   -4.2292    0.0000 C   0  0  0  0  0  0  0  0  0  0  0  0
    4.7792   -3.4792    0.0000 C   0  0  0  0  0  0  0  0  0  0  0  0
    9.8292   -3.1667    0.0000 O   0  0  0  0  0  0  0  0  0  0  0  0
    1.5167   -3.1042    0.0000 O   0  0  0  0  0  0  0  0  0  0  0  0
   10.4250   -4.8792    0.0000 O   0  0  0  0  0  0  0  0  0  0  0  0
   10.4250   -4.1917    0.0000 C   0  0  0  0  0  0  0  0  0  0  0  0
    1.5167   -2.3542    0.0000 C   0  0  0  0  0  0  0  0  0  0  0  0
  2  1  1  0
  4  3  1  0
  5  6  1  0
  6  2  1  0
  7  5  2  0
  8  4  1  0
  2  9  1  1
 10  3  1  0
  1 11  1  1
 12 21  1  6
 13 11  1  0
  1 14  1  0
 15  7  1  0
 16  8  1  0
 17 15  2  0
 18  7  1  0
 19 10  2  0
 13 20  1  1
 21 14  1  0
  3 22  1  1
 23 15  1  0
  4 24  1  1
 25 20  2  0
  8 26  1  1
  6 27  1  6
 28 18  2  0
 29 10  1  0
 30 32  2  0
 31 23  2  0
 32  5  1  0
 16 33  1  6
 34 28  1  0
 35 36  1  0
 36 16  1  0
 37 34  1  0
 12 13  1  0
 12  9  1  0
 30 17  1  0
 28 31  1  0
M  END
>  <ID>  (2365) 


>  <MOLENAME>  (2365) 
QUINIDINE GLUCONATE

>  <therap>  (2365) 
antiarrhythmic, antimalarial

>  <ref>  (2365) 
J Clin Pharmacol 22:264 (1982); Annals Int Med 103:307 (1985)

>  <cas#>  (2365) 
7054-25-3, 6591-63-5 [quinidine sulfate], 56-54-2 [quinidine]

>  <source>  (2365) 
Cinchona spp

>  <status>  (2365) 
USP

>  <tradename>  (2365) 
DURAQUIN

>  <SMILES>  (2365) 
C=C[C@H]1C[N@]2CC[C@H]1C[C@@H]2[C@@H](O)c1c2cc(OC)ccc2ncc1

>  <standardized_failed>  (2365) 
False

$$$$

     RDKit          2D

 24 27  0  0  0  0  0  0  0  0999 V2000
    4.0167   -0.0417    0.0000 N   0  0  0  0  0  0  0  0  0  0  0  0
    3.3417    0.4958    0.0000 C   0  0  0  0  0  0  0  0  0  0  0  0
    2.9292   -0.4750    0.0000 C   0  0  0  0  0  0  0  0  0  0  0  0
    2.9292    0.1750    0.0000 C   0  0  0  0  0  0  0  0  0  0  0  0
    2.3417   -0.8250    0.0000 C   0  0  0  0  0  0  0  0  0  0  0  0
    3.3292    1.2000    0.0000 C   0  0  0  0  0  0  0  0  0  0  0  0
    4.8292    0.5208    0.0000 C   0  0  0  0  0  0  0  0  0  0  0  0
    4.1042    1.6375    0.0000 C   0  0  0  0  0  0  0  0  0  0  0  0
    4.8500    1.0958    0.0000 C   0  0  0  0  0  0  0  0  0  0  0  0
    4.2917    0.7958    0.0000 C   0  0  0  0  0  0  0  0  0  0  0  0
    2.3417   -1.4917    0.0000 C   0  0  0  0  0  0  0  0  0  0  0  0
    2.9292   -1.8375    0.0000 N   0  0  0  0  0  0  0  0  0  0  0  0
    1.7292   -0.4750    0.0000 C   0  0  0  0  0  0  0  0  0  0  0  0
    5.4292    1.4250    0.0000 C   0  0  0  0  0  0  0  0  0  0  0  0
    3.7667    0.9833    0.0000 C   0  0  0  0  0  0  0  0  0  0  0  0
    1.7292   -1.8250    0.0000 C   0  0  0  0  0  0  0  0  0  0  0  0
    5.9917    1.1625    0.0000 C   0  0  0  0  0  0  0  0  0  0  0  0
    2.3167    0.4875    0.0000 O   0  0  0  0  0  0  0  0  0  0  0  0
    1.1542   -0.8250    0.0000 C   0  0  0  0  0  0  0  0  0  0  0  0
    3.5292   -1.4917    0.0000 C   0  0  0  0  0  0  0  0  0  0  0  0
    1.1542   -1.4917    0.0000 C   0  0  0  0  0  0  0  0  0  0  0  0
    3.5292   -0.8250    0.0000 C   0  0  0  0  0  0  0  0  0  0  0  0
    0.5542   -0.4875    0.0000 O   0  0  0  0  0  0  0  0  0  0  0  0
    0.5542    0.1750    0.0000 C   0  0  0  0  0  0  0  0  0  0  0  0
  2  1  1  0
  3  4  1  0
  4  2  1  0
  5  3  1  0
  2  6  1  1
  1  7  1  1
  8 15  1  6
  9  7  1  0
  1 10  1  0
 11  5  2  0
 12 20  2  0
 13  5  1  0
  9 14  1  1
 15 10  1  0
 16 11  1  0
 17 14  2  0
  4 18  1  1
 19 13  2  0
 20 22  1  0
 21 19  1  0
 22  3  2  0
 23 19  1  0
 24 23  1  0
  8  9  1  0
  6  8  1  0
 12 11  1  0
 16 21  2  0
M  END
>  <ID>  (2366) 


>  <MOLENAME>  (2366) 
QUININE

>  <therap>  (2366) 
antimalarial, skeletal muscle relaxant

>  <ref>  (2366) 
J Infect Dis 169:467 (1994); Angew Chem Int Ed 44:854 (2005)

>  <cas#>  (2366) 
 130-95-0

>  <source>  (2366) 
Cinchona spp

>  <status>  (2366) 
USP, JAN

>  <tradename>  (2366) 
QUALAQUIN

>  <SMILES>  (2366) 
C=C[C@H]1C[N@]2CC[C@H]1C[C@@H]2[C@H](O)c1ccnc2c1cc(OC)cc2

>  <standardized_failed>  (2366) 
False

$$$$

     RDKit          2D

 31 33  0  0  0  0  0  0  0  0999 V2000
    4.3042    0.7750    0.0000 C   0  0  0  0  0  0  0  0  0  0  0  0
    3.1792    1.4125    0.0000 C   0  0  0  0  0  0  0  0  0  0  0  0
    3.5542    0.7750    0.0000 C   0  0  0  0  0  0  0  0  0  0  0  0
    5.4667   -1.1625    0.0000 C   0  0  0  0  0  0  0  0  0  0  0  0
    4.7542   -0.7500    0.0000 C   0  0  0  0  0  0  0  0  0  0  0  0
    5.4667   -1.9875    0.0000 C   0  0  0  0  0  0  0  0  0  0  0  0
    4.7417    0.0750    0.0000 O   0  0  0  0  0  0  0  0  0  0  0  0
    2.4292    1.4125    0.0000 O   0  0  0  0  0  0  0  0  0  0  0  0
    1.5917    1.4208    0.0000 C   0  0  0  0  0  0  0  0  0  0  0  0
    4.7542   -2.4000    0.0000 C   0  0  0  0  0  0  0  0  0  0  0  0
    1.1667    0.7083    0.0000 O   0  0  0  0  0  0  0  0  0  0  0  0
    3.5542    2.0625    0.0000 C   0  0  0  0  0  0  0  0  0  0  0  0
    4.6792    1.4125    0.0000 C   0  0  0  0  0  0  0  0  0  0  0  0
    4.0417   -1.1625    0.0000 O   0  0  0  0  0  0  0  0  0  0  0  0
    4.3042    2.0625    0.0000 C   0  0  0  0  0  0  0  0  0  0  0  0
    0.3417    0.7125    0.0000 C   0  0  0  0  0  0  0  0  0  0  0  0
    4.0417   -1.9875    0.0000 C   0  0  0  0  0  0  0  0  0  0  0  0
   -0.0708    1.4375    0.0000 C   0  0  0  0  0  0  0  0  0  0  0  0
    1.1792    2.1417    0.0000 C   0  0  0  0  0  0  0  0  0  0  0  0
    0.3542    2.1500    0.0000 C   0  0  0  0  0  0  0  0  0  0  0  0
    6.1792   -2.4000    0.0000 N   0  0  0  0  0  0  0  0  0  0  0  0
    6.1792   -0.7500    0.0000 O   0  0  0  0  0  0  0  0  0  0  0  0
    3.1667    0.1125    0.0000 O   0  0  0  0  0  0  0  0  0  0  0  0
    3.1667    2.7250    0.0000 N   0  0  0  0  0  0  0  0  0  0  0  0
    5.4292    1.4125    0.0000 N   0  0  0  0  0  0  0  0  0  0  0  0
    4.3417   -3.1125    0.0000 O   0  0  0  0  0  0  0  0  0  0  0  0
    1.6042    2.8500    0.0000 N   0  0  0  0  0  0  0  0  0  0  0  0
   -0.9083    0.0125    0.0000 N   0  0  0  0  0  0  0  0  0  0  0  0
    5.4667   -2.8125    0.0000 C   0  0  0  0  0  0  0  0  0  0  0  0
   -0.0833    0.0083    0.0000 C   0  0  0  0  0  0  0  0  0  0  0  0
    6.1792   -3.2250    0.0000 C   0  0  0  0  0  0  0  0  0  0  0  0
  2  3  1  0
  3  1  1  0
  4  5  1  0
  5  7  1  6
  6  4  1  0
  1  7  1  6
  2  8  1  6
  9  8  1  1
 10 17  1  0
 11  9  1  0
 12 15  1  0
 13  1  1  0
 14  5  1  0
 15 13  1  0
 16 11  1  0
 17 14  1  0
 18 20  1  0
 19  9  1  0
 20 19  1  0
  6 21  1  1
 22  4  1  0
  3 23  1  1
 12 24  1  1
 13 25  1  1
 26 10  1  0
 19 27  1  1
 28 30  1  0
 10 29  1  6
 30 16  1  0
 31 21  1  0
  2 12  1  0
  6 10  1  0
 16 18  2  0
M  END
>  <ID>  (2367) 


>  <MOLENAME>  (2367) 
SISOMICIN

>  <therap>  (2367) 
antibacterial, binds to ribosomes

>  <ref>  (2367) 
J Antibiot 23:551, 559 (1970); Drugs 27:548 (1984)

>  <cas#>  (2367) 
32385-11-8

>  <source>  (2367) 
Micromonospora myoensis; SCH-13475

>  <status>  (2367) 
USP, BAN, JAN

>  <tradename>  (2367) 
SISEPTIN

>  <SMILES>  (2367) 
CN[C@@H]1C(O)[C@@H](O[C@@H]2[C@@H](O)[C@H](O[C@H]3OC(CN)=CC[C@H]3N)[C@@H](N)C[C@H]2N)OC[C@]1(C)O

>  <standardized_failed>  (2367) 
False

$$$$

     RDKit          2D

 29 29  0  0  0  0  0  0  0  0999 V2000
    4.8792   -7.9042    0.0000 C   0  0  0  0  0  0  0  0  0  0  0  0
    4.8792   -6.4042    0.0000 C   0  0  0  0  0  0  0  0  0  0  0  0
    4.8792   -5.6542    0.0000 C   0  0  0  0  0  0  0  0  0  0  0  0
    4.2375   -7.5292    0.0000 C   0  0  0  0  0  0  0  0  0  0  0  0
    5.5292   -7.5292    0.0000 C   0  0  0  0  0  0  0  0  0  0  0  0
    4.2375   -6.7792    0.0000 C   0  0  0  0  0  0  0  0  0  0  0  0
    5.5292   -6.7792    0.0000 C   0  0  0  0  0  0  0  0  0  0  0  0
    5.5292   -5.2792    0.0000 N   0  0  0  0  0  0  0  0  0  0  0  0
    4.2292   -5.2792    0.0000 O   0  0  0  0  0  0  0  0  0  0  0  0
    5.5292   -4.5292    0.0000 C   0  0  0  0  0  0  0  0  0  0  0  0
    4.8792   -8.6542    0.0000 O   0  0  0  0  0  0  0  0  0  0  0  0
    6.1875   -7.9042    0.0000 O   0  0  0  0  0  0  0  0  0  0  0  0
    3.5792   -7.9125    0.0000 O   0  0  0  0  0  0  0  0  0  0  0  0
    8.7667   -1.1500    0.0000 N   0  0  0  0  0  0  0  0  0  0  0  0
    6.1750   -4.1542    0.0000 C   0  0  0  0  0  0  0  0  0  0  0  0
    7.4667   -3.4042    0.0000 C   0  0  0  0  0  0  0  0  0  0  0  0
    9.7292   -2.4375    0.0000 Cl  0  0  0  0  0  0  0  0  0  0  0  0
    6.8167   -4.5292    0.0000 C   0  0  0  0  0  0  0  0  0  0  0  0
    6.1750   -3.4042    0.0000 C   0  0  0  0  0  0  0  0  0  0  0  0
    6.8167   -3.0292    0.0000 C   0  0  0  0  0  0  0  0  0  0  0  0
    7.4667   -4.1542    0.0000 C   0  0  0  0  0  0  0  0  0  0  0  0
    8.1250   -3.0292    0.0000 O   0  0  0  0  0  0  0  0  0  0  0  0
    8.1250   -2.2667    0.0000 C   0  0  0  0  0  0  0  0  0  0  0  0
    8.7667   -1.8917    0.0000 C   0  0  0  0  0  0  0  0  0  0  0  0
    9.4167   -0.7750    0.0000 C   0  0  0  0  0  0  0  0  0  0  0  0
    8.1167   -0.7750    0.0000 C   0  0  0  0  0  0  0  0  0  0  0  0
    5.5292   -9.0292    0.0000 C   0  0  0  0  0  0  0  0  0  0  0  0
    2.9292   -7.5417    0.0000 C   0  0  0  0  0  0  0  0  0  0  0  0
    6.1875   -8.6542    0.0000 C   0  0  0  0  0  0  0  0  0  0  0  0
  2  7  1  0
  3  2  1  0
  4  1  2  0
  5  1  1  0
  6  4  1  0
  7  5  2  0
  8  3  1  0
  9  3  2  0
 10  8  1  0
 11  1  1  0
 12  5  1  0
 13  4  1  0
 14 24  1  0
 15 10  1  0
 16 21  2  0
 18 15  2  0
 19 15  1  0
 20 19  2  0
 21 18  1  0
 22 16  1  0
 23 22  1  0
 24 23  1  0
 25 14  1  0
 26 14  1  0
 27 11  1  0
 28 13  1  0
 29 12  1  0
  6  2  2  0
 20 16  1  0
M  END
>  <ID>  (2368) 


>  <MOLENAME>  (2368) 
TRIMETHOBENZAMIDE HYDROCHLORIDE

>  <therap>  (2368) 
antiemetic

>  <ref>  (2368) 
Anal Profiles Drug Subs 2:551 (1973)

>  <cas#>  (2368) 
554-92-7, 138-56-7 [trimethobenzamide]

>  <source>  (2368) 
synthetic

>  <status>  (2368) 
USP, INN

>  <tradename>  (2368) 
TIGAN

>  <SMILES>  (2368) 
COc1c(OC)c(OC)cc(C(=O)NCc2ccc(OCCN(C)C)cc2)c1

>  <standardized_failed>  (2368) 
False

$$$$

     RDKit          2D

 47 51  0  0  0  0  0  0  0  0999 V2000
    3.2125   -1.3417    0.0000 C   0  0  0  0  0  0  0  0  0  0  0  0
    3.3542   -2.0667    0.0000 C   0  0  0  0  0  0  0  0  0  0  0  0
    3.7750   -0.8500    0.0000 C   0  0  0  0  0  0  0  0  0  0  0  0
    3.6375   -0.1250    0.0000 N   0  0  0  0  0  0  0  0  0  0  0  0
    7.6917   -3.1167    0.0000 C   0  0  0  0  0  0  0  0  0  0  0  0
    2.7875   -2.5667    0.0000 C   0  0  0  0  0  0  0  0  0  0  0  0
    2.5042   -1.0875    0.0000 C   0  0  0  0  0  0  0  0  0  0  0  0
    7.0292   -3.4917    0.0000 C   0  0  0  0  0  0  0  0  0  0  0  0
    8.3167   -1.2667    0.0000 O   0  0  0  0  0  0  0  0  0  0  0  0
    8.3417   -2.0042    0.0000 C   0  0  0  0  0  0  0  0  0  0  0  0
    7.0292   -4.2417    0.0000 N   0  0  0  0  0  0  0  0  0  0  0  0
    4.0667   -2.2042    0.0000 O   0  0  0  0  0  0  0  0  0  0  0  0
    7.6917   -2.3792    0.0000 C   0  0  0  0  0  0  0  0  0  0  0  0
    8.3292   -3.5042    0.0000 C   0  0  0  0  0  0  0  0  0  0  0  0
    6.4792   -1.0542    0.0000 C   0  0  0  0  0  0  0  0  0  0  0  0
    2.0708   -2.3042    0.0000 C   0  0  0  0  0  0  0  0  0  0  0  0
    1.9417   -1.5792    0.0000 C   0  0  0  0  0  0  0  0  0  0  0  0
    8.9917   -2.3792    0.0000 C   0  0  0  0  0  0  0  0  0  0  0  0
    8.9792   -3.1292    0.0000 C   0  0  0  0  0  0  0  0  0  0  0  0
    4.5167   -0.8417    0.0000 C   0  0  0  0  0  0  0  0  0  0  0  0
    2.9292    0.1333    0.0000 C   0  0  0  0  0  0  0  0  0  0  0  0
    6.5417   -1.7917    0.0000 C   0  0  0  0  0  0  0  0  0  0  0  0
    6.3167   -3.7042    0.0000 C   0  0  0  0  0  0  0  0  0  0  0  0
    5.8042   -0.7292    0.0000 C   0  0  0  0  0  0  0  0  0  0  0  0
    2.3667   -0.3542    0.0000 C   0  0  0  0  0  0  0  0  0  0  0  0
    7.6667   -4.6167    0.0000 C   0  0  0  0  0  0  0  0  0  0  0  0
    5.1917   -1.1542    0.0000 C   0  0  0  0  0  0  0  0  0  0  0  0
    8.3167   -4.2542    0.0000 C   0  0  0  0  0  0  0  0  0  0  0  0
    5.0542    0.1875    0.0000 Cl  0  0  0  0  0  0  0  0  0  0  0  0
    4.4667   -2.4417    0.0000 C   0  0  0  0  0  0  0  0  0  0  0  0
    5.9292   -2.2167    0.0000 C   0  0  0  0  0  0  0  0  0  0  0  0
    2.9250   -3.3083    0.0000 O   0  0  0  0  0  0  0  0  0  0  0  0
    5.7042   -3.2792    0.0000 C   0  0  0  0  0  0  0  0  0  0  0  0
    5.2542   -1.9042    0.0000 C   0  0  0  0  0  0  0  0  0  0  0  0
    1.5000   -2.7750    0.0000 O   0  0  0  0  0  0  0  0  0  0  0  0
    3.4417    0.5958    0.0000 C   0  0  0  0  0  0  0  0  0  0  0  0
    4.2167    0.3500    0.0000 C   0  0  0  0  0  0  0  0  0  0  0  0
    9.6667   -2.0042    0.0000 O   0  0  0  0  0  0  0  0  0  0  0  0
    7.2042   -2.1042    0.0000 O   0  0  0  0  0  0  0  0  0  0  0  0
    5.1417   -2.1167    0.0000 C   0  0  0  0  0  0  0  0  0  0  0  0
    4.4042   -3.1792    0.0000 C   0  0  0  0  0  0  0  0  0  0  0  0
    7.1792   -5.5542    0.0000 Cl  0  0  0  0  0  0  0  0  0  0  0  0
    5.0167   -3.6042    0.0000 C   0  0  0  0  0  0  0  0  0  0  0  0
    5.7542   -2.5417    0.0000 C   0  0  0  0  0  0  0  0  0  0  0  0
    6.3667   -4.6167    0.0000 C   0  0  0  0  0  0  0  0  0  0  0  0
    1.6167   -3.5125    0.0000 C   0  0  0  0  0  0  0  0  0  0  0  0
   10.3042   -2.3917    0.0000 C   0  0  0  0  0  0  0  0  0  0  0  0
  2  1  1  0
  3  1  1  0
  3  4  1  6
  5 13  1  0
  6  2  2  0
  7  1  2  0
  8 23  1  0
  9 15  1  0
 10  9  1  0
  8 11  1  1
 12  2  1  0
 13 10  2  0
 14 19  1  0
 15 24  1  0
 16 17  2  0
 17  7  1  0
 18 10  1  0
 19 18  2  0
  3 20  1  0
 21 25  1  0
 22 31  1  0
 23 33  1  0
 24 27  2  0
 25  7  1  0
 26 11  1  0
 27 20  1  0
 28 14  1  0
 30 12  1  0
 31 34  2  0
 32  6  1  0
 33 43  2  0
 34 27  1  0
 35 16  1  0
 36  4  1  0
 37  4  1  0
 38 18  1  0
 39 22  1  0
 40 30  1  0
 41 30  2  0
 43 41  1  0
 44 40  2  0
 45 11  1  0
 46 35  1  0
 47 38  1  0
  4 21  1  0
  6 16  1  0
 33 44  1  0
 22 15  2  0
  5  8  1  0
  5 14  2  0
 28 26  1  0
M  CHG  2   4   1  29  -1
M  END
>  <ID>  (2369) 


>  <MOLENAME>  (2369) 
TUBOCURARINE CHLORIDE

>  <therap>  (2369) 
muscle relaxant (skeletal)

>  <ref>  (2369) 
Nature 158: 515 (1946); Chem Commun 1970: 1020

>  <cas#>  (2369) 
6989-98-6, 57-94-3 [anhydrous], 41354-45-4 [replaced], 57-95-4 [tubocurarine]

>  <source>  (2369) 
Chondodendron spp

>  <status>  (2369) 
USP, INN, BAN, JAN

>  <tradename>  (2369) 
TUBARINE

>  <SMILES>  (2369) 
COc1cc2c3cc1Oc1c(O)ccc(c1)C[C@@H]1c4c(cc(OC)c(O)c4Oc4ccc(cc4)C[C@@H]3N(C)CC2)CC[N+]1(C)C

>  <standardized_failed>  (2369) 
False

$$$$

     RDKit          2D

 19 19  0  0  0  0  0  0  0  0999 V2000
    5.6917   -3.2250    0.0000 C   0  0  0  0  0  0  0  0  0  0  0  0
    7.1167   -4.0542    0.0000 C   0  0  0  0  0  0  0  0  0  0  0  0
    4.2417   -3.2042    0.0000 C   0  0  0  0  0  0  0  0  0  0  0  0
    5.6917   -4.0542    0.0000 C   0  0  0  0  0  0  0  0  0  0  0  0
    6.4042   -2.8125    0.0000 C   0  0  0  0  0  0  0  0  0  0  0  0
    4.0625   -4.0167    0.0000 N   0  0  0  0  0  0  0  0  0  0  0  0
    7.1167   -3.2250    0.0000 C   0  0  0  0  0  0  0  0  0  0  0  0
    6.4042   -4.4667    0.0000 C   0  0  0  0  0  0  0  0  0  0  0  0
    4.9667   -2.8000    0.0000 C   0  0  0  0  0  0  0  0  0  0  0  0
    3.5292   -2.7875    0.0000 N   0  0  0  0  0  0  0  0  0  0  0  0
    7.8417   -4.4750    0.0000 C   0  0  0  0  0  0  0  0  0  0  0  0
    2.7042   -5.1792    0.0000 Cl  0  0  0  0  0  0  0  0  0  0  0  0
    3.2417   -4.0917    0.0000 C   0  0  0  0  0  0  0  0  0  0  0  0
    6.4042   -1.9875    0.0000 C   0  0  0  0  0  0  0  0  0  0  0  0
    4.9667   -4.4792    0.0000 C   0  0  0  0  0  0  0  0  0  0  0  0
    2.9042   -3.3375    0.0000 C   0  0  0  0  0  0  0  0  0  0  0  0
    8.2625   -3.7542    0.0000 C   0  0  0  0  0  0  0  0  0  0  0  0
    8.5625   -4.8917    0.0000 C   0  0  0  0  0  0  0  0  0  0  0  0
    7.4167   -5.1917    0.0000 C   0  0  0  0  0  0  0  0  0  0  0  0
  2  7  2  0
  3  9  1  0
  4  1  1  0
  5  1  2  0
  6  3  2  0
  7  5  1  0
  8  4  2  0
  9  1  1  0
 10  3  1  0
 11  2  1  0
 13  6  1  0
 14  5  1  0
 15  4  1  0
 16 10  1  0
 17 11  1  0
 18 11  1  0
 19 11  1  0
  8  2  1  0
 16 13  1  0
M  END
>  <ID>  (2370) 


>  <MOLENAME>  (2370) 
XYLOMETAZOLINE HYDROCHLORIDE

>  <therap>  (2370) 
adrenergic agonist, nasal decongestant

>  <ref>  (2370) 
Anal Profiles Drug Subs 14:135 (1985); J Laryngol Otol 101:666 (1987)

>  <cas#>  (2370) 
1218-35-5, 526-36-3 [xylometazoline]

>  <source>  (2370) 
synthetic

>  <status>  (2370) 
USP, INN, BAN

>  <tradename>  (2370) 
OTRIVIN

>  <SMILES>  (2370) 
Cc1c(CC2=NCCN2)c(C)cc(C(C)(C)C)c1

>  <standardized_failed>  (2370) 
False

$$$$

     RDKit          2D

 26 27  0  0  0  0  0  0  0  0999 V2000
    7.6042   -7.0542    0.0000 N   0  0  0  0  0  0  0  0  0  0  0  0
    7.6125   -7.8792    0.0000 C   0  0  0  0  0  0  0  0  0  0  0  0
    6.7875   -7.0542    0.0000 C   0  0  0  0  0  0  0  0  0  0  0  0
    6.7875   -7.8792    0.0000 C   0  0  0  0  0  0  0  0  0  0  0  0
    8.3875   -6.8000    0.0000 C   0  0  0  0  0  0  0  0  0  0  0  0
    8.3917   -8.1292    0.0000 S   0  0  0  0  0  0  0  0  0  0  0  0
    8.8792   -7.4625    0.0000 C   0  0  0  0  0  0  0  0  0  0  0  0
    6.2042   -8.4625    0.0000 N   0  0  0  0  0  0  0  0  0  0  0  0
    5.8292   -9.1125    0.0000 C   0  0  0  0  0  0  0  0  0  0  0  0
    8.3875   -5.9750    0.0000 C   0  0  0  0  0  0  0  0  0  0  0  0
    6.2042   -6.4792    0.0000 O   0  0  0  0  0  0  0  0  0  0  0  0
    5.0792   -9.1125    0.0000 C   0  0  0  0  0  0  0  0  0  0  0  0
    4.7042   -8.4667    0.0000 O   0  0  0  0  0  0  0  0  0  0  0  0
    9.0375   -5.6000    0.0000 O   0  0  0  0  0  0  0  0  0  0  0  0
    6.2042   -9.7625    0.0000 O   0  0  0  0  0  0  0  0  0  0  0  0
    7.6667   -5.5625    0.0000 O   0  0  0  0  0  0  0  0  0  0  0  0
    9.2542   -8.1917    0.0000 C   0  0  0  0  0  0  0  0  0  0  0  0
    9.6125   -7.0750    0.0000 C   0  0  0  0  0  0  0  0  0  0  0  0
    3.9542   -8.4667    0.0000 C   0  0  0  0  0  0  0  0  0  0  0  0
    9.7250   -5.6042    0.0000 K   0  0  0  0  0 15  0  0  0  0  0  0
    4.7042   -9.7625    0.0000 C   0  0  0  0  0  0  0  0  0  0  0  0
    3.5792   -7.8167    0.0000 C   0  0  0  0  0  0  0  0  0  0  0  0
    3.5792   -9.1125    0.0000 C   0  0  0  0  0  0  0  0  0  0  0  0
    2.8292   -7.8167    0.0000 C   0  0  0  0  0  0  0  0  0  0  0  0
    2.8292   -9.1125    0.0000 C   0  0  0  0  0  0  0  0  0  0  0  0
    2.4542   -8.4667    0.0000 C   0  0  0  0  0  0  0  0  0  0  0  0
  2  1  1  0
  3  1  1  0
  4  3  1  0
  5  1  1  0
  2  6  1  6
  7  5  1  0
  4  8  1  6
  9  8  1  0
  5 10  1  1
 11  3  2  0
 12  9  1  0
 13 12  1  0
 14 10  1  0
 15  9  2  0
 16 10  2  0
 17  7  1  0
 18  7  1  0
 19 13  1  0
 21 12  1  0
 22 19  2  0
 23 19  1  0
 24 22  1  0
 25 23  2  0
 26 24  2  0
  7  6  1  0
  2  4  1  0
 25 26  1  0
M  CHG  2  14  -1  20   1
M  END
>  <ID>  (2371) 


>  <MOLENAME>  (2371) 
PHENETHICILLIN POTASSIUM

>  <therap>  (2371) 
antibacterial

>  <ref>  (2371) 
J. Antibiot. (1974), 27(12), 922-30; J. Am. Chem. Soc. (1960), 82, 3934-8; Antibiot. Annu. (1960), 107-10

>  <cas#>  (2371) 
132-93-4, 147-55-7 [phenethicillin]

>  <source>  (2371) 
semisynthetic

>  <status>  (2371) 
USP-XX, INN, BAN, JAN

>  <tradename>  (2371) 
nan

>  <SMILES>  (2371) 
CC(Oc1ccccc1)C(=O)N[C@@H]1C(=O)N2[C@@H](C(=O)O)C(C)(C)S[C@H]12

>  <standardized_failed>  (2371) 
False

$$$$

     RDKit          2D

 30 35  0  0  0  0  0  0  0  0999 V2000
    2.9042    0.3625    0.0000 C   0  0  0  0  0  0  0  0  0  0  0  0
    2.1167   -0.7125    0.0000 N   0  0  0  0  0  0  0  0  0  0  0  0
    2.9042   -0.4625    0.0000 C   0  0  0  0  0  0  0  0  0  0  0  0
    3.6167   -0.8750    0.0000 C   0  0  0  0  0  0  0  0  0  0  0  0
    1.9417   -1.5167    0.0000 C   0  0  0  0  0  0  0  0  0  0  0  0
    3.6167    0.7750    0.0000 C   0  0  0  0  0  0  0  0  0  0  0  0
    1.6375   -0.0417    0.0000 C   0  0  0  0  0  0  0  0  0  0  0  0
    2.1167    0.6208    0.0000 C   0  0  0  0  0  0  0  0  0  0  0  0
    4.3292   -0.4625    0.0000 C   0  0  0  0  0  0  0  0  0  0  0  0
    3.4417    1.5875    0.0000 N   0  0  0  0  0  0  0  0  0  0  0  0
    6.2917    1.6875    0.0000 S   0  0  0  0  0  0  0  0  0  0  0  0
    3.4917   -1.6917    0.0000 C   0  0  0  0  0  0  0  0  0  0  0  0
    5.0042    0.6708    0.0000 C   0  0  0  0  0  0  0  0  0  0  0  0
    2.7292   -2.0000    0.0000 C   0  0  0  0  0  0  0  0  0  0  0  0
    4.3292    0.3625    0.0000 C   0  0  0  0  0  0  0  0  0  0  0  0
    4.0417    0.8875    0.0000 C   0  0  0  0  0  0  0  0  0  0  0  0
    2.2875    0.9250    0.0000 C   0  0  0  0  0  0  0  0  0  0  0  0
    2.6167    1.6625    0.0000 C   0  0  0  0  0  0  0  0  0  0  0  0
    4.6000   -0.8625    0.0000 O   0  0  0  0  0  0  0  0  0  0  0  0
    1.1542   -1.7875    0.0000 O   0  0  0  0  0  0  0  0  0  0  0  0
    6.9917    1.6875    0.0000 O   0  0  0  0  0  0  0  0  0  0  0  0
    6.2917    2.3833    0.0000 O   0  0  0  0  0  0  0  0  0  0  0  0
    5.7250    0.2000    0.0000 C   0  0  0  0  0  0  0  0  0  0  0  0
    5.5917    1.6875    0.0000 O   0  0  0  0  0  0  0  0  0  0  0  0
    6.2917    0.9875    0.0000 O   0  0  0  0  0  0  0  0  0  0  0  0
    5.4417   -0.6125    0.0000 C   0  0  0  0  0  0  0  0  0  0  0  0
    0.8167    0.0458    0.0000 C   0  0  0  0  0  0  0  0  0  0  0  0
    1.7792    1.3750    0.0000 C   0  0  0  0  0  0  0  0  0  0  0  0
    0.9625    1.4625    0.0000 C   0  0  0  0  0  0  0  0  0  0  0  0
    0.4792    0.8000    0.0000 C   0  0  0  0  0  0  0  0  0  0  0  0
  2  3  1  0
  3  1  1  0
  4  3  1  0
  5  2  1  0
  6  1  1  0
  7  8  2  0
  8  1  1  0
  9 15  1  6
 10  6  1  0
  4 12  1  1
  9 13  1  0
 14 12  1  0
 15  6  1  0
 16 10  1  0
  1 17  1  1
 18 17  1  0
 19 12  1  0
 20  5  2  0
 21 11  2  0
 22 11  2  0
 23 13  2  0
 24 11  1  0
 25 11  1  0
 26 19  1  0
 27  7  1  0
 28  8  1  0
 29 28  2  0
 30 27  2  0
 18 10  1  0
  7  2  1  0
  4  9  1  0
 16 13  1  0
  5 14  1  0
 29 30  1  0
 26 23  1  0
M  END
>  <ID>  (2372) 


>  <MOLENAME>  (2372) 
STRYCHNINE SULFATE

>  <therap>  (2372) 
central stimulant

>  <ref>  (2372) 
Arzneim Forsch 14:996 (1964); Curr Vet Ther 6:115 (1977); Anal Profiles Drug Subs 15:563 (1986)

>  <cas#>  (2372) 
60-41-3

>  <source>  (2372) 
Strychnos nux-vomica, Strychnos spp

>  <status>  (2372) 
NF-X

>  <tradename>  (2372) 
nan

>  <SMILES>  (2372) 
O=C1CC2OCC=C3CN4CC[C@]56c7c(cccc7)N1C5[C@H]2[C@H]3CC46

>  <standardized_failed>  (2372) 
False

$$$$

     RDKit          2D

  8  6  0  0  0  0  0  0  0  0999 V2000
    4.5167    0.0583    0.0000 C   0  0  0  0  0  0  0  0  0  0  0  0
    4.5167   -0.6917    0.0000 O   0  0  0  0  0  0  0  0  0  0  0  0
    5.1667    0.4333    0.0000 O   0  0  0  0  0  0  0  0  0  0  0  0
    0.7125   -0.8667    0.0000 Cl  0  0  0  0  0  0  0  0  0  0  0  0
    1.9167    0.0583    0.0000 N   0  0  0  0  0  0  0  0  0  0  0  0
    3.8667    0.4333    0.0000 C   0  0  0  0  0  0  0  0  0  0  0  0
    2.5667    0.4333    0.0000 C   0  0  0  0  0  0  0  0  0  0  0  0
    3.2167    0.0583    0.0000 C   0  0  0  0  0  0  0  0  0  0  0  0
  2  1  2  0
  3  1  1  0
  5  7  1  0
  6  1  1  0
  7  8  1  0
  8  6  1  0
M  END
>  <ID>  (2373) 


>  <MOLENAME>  (2373) 
gamma-AMINOBUTYRIC ACID HYDROCHLORIDE

>  <therap>  (2373) 
antihypertensive

>  <ref>  (2373) 
Biochem. Pharmacol. (1966), 15(1), 49-54; Br. J. Pharmacol. Chemother. (1964), 23, 313-29; J. Physiol. (1962), 162, 105-20,

>  <cas#>  (2373) 
56-12-2 (base)

>  <source>  (2373) 
widely distributed in higher plants

>  <status>  (2373) 
JAN

>  <tradename>  (2373) 
nan

>  <SMILES>  (2373) 
NCCCC(=O)O

>  <standardized_failed>  (2373) 
False

$$$$

     RDKit          2D

 14 15  0  0  0  0  0  0  0  0999 V2000
    0.7000   -0.5542    0.0000 N   0  0  0  0  0  0  0  0  0  0  0  0
    1.3542   -0.9292    0.0000 C   0  0  0  0  0  0  0  0  0  0  0  0
    1.3542   -1.6875    0.0000 C   0  0  0  0  0  0  0  0  0  0  0  0
    0.7000   -2.0625    0.0000 C   0  0  0  0  0  0  0  0  0  0  0  0
    0.0417   -0.9292    0.0000 C   0  0  0  0  0  0  0  0  0  0  0  0
    0.0417   -1.6875    0.0000 C   0  0  0  0  0  0  0  0  0  0  0  0
    2.0042   -0.5542    0.0000 C   0  0  0  0  0  0  0  0  0  0  0  0
    2.0042    0.1958    0.0000 O   0  0  0  0  0  0  0  0  0  0  0  0
    0.7000   -2.8125    0.0000 O   0  0  0  0  0  0  0  0  0  0  0  0
    2.6542   -0.9292    0.0000 O   0  0  0  0  0  0  0  0  0  0  0  0
   -0.6083   -2.0625    0.0000 C   0  0  0  0  0  0  0  0  0  0  0  0
   -0.6083   -0.5542    0.0000 C   0  0  0  0  0  0  0  0  0  0  0  0
   -1.2583   -1.6875    0.0000 C   0  0  0  0  0  0  0  0  0  0  0  0
   -1.2583   -0.9292    0.0000 C   0  0  0  0  0  0  0  0  0  0  0  0
  2  1  2  0
  3  2  1  0
  4  6  1  0
  5  1  1  0
  6  5  2  0
  7  2  1  0
  8  7  2  0
  9  4  1  0
 10  7  1  0
 11  6  1  0
 12  5  1  0
 13 14  1  0
 14 12  2  0
  4  3  2  0
 11 13  2  0
M  END
>  <ID>  (2374) 


>  <MOLENAME>  (2374) 
KYNURENIC ACID

>  <therap>  (2374) 
NMDA receptor antagonist, neuromodulator, use in vitamin B deficiency

>  <ref>  (2374) 
Pharmacol Rev 45:309 (1993); J Neural Transm 115:1087 (2008)

>  <cas#>  (2374) 
nan

>  <source>  (2374) 
tryptophan metabolite

>  <status>  (2374) 
experimental

>  <tradename>  (2374) 
nan

>  <SMILES>  (2374) 
O=C(O)c1nc2c(cccc2)c(O)c1

>  <standardized_failed>  (2374) 
False

$$$$

     RDKit          2D

 18 19  0  0  0  0  0  0  0  0999 V2000
    1.1625   -1.7875    0.0000 C   0  0  0  0  0  0  0  0  0  0  0  0
    2.4667   -2.0625    0.0000 N   0  0  0  0  0  0  0  0  0  0  0  0
    1.9167   -1.4417    0.0000 C   0  0  0  0  0  0  0  0  0  0  0  0
    0.4417   -0.5500    0.0000 C   0  0  0  0  0  0  0  0  0  0  0  0
    1.2500   -2.6042    0.0000 C   0  0  0  0  0  0  0  0  0  0  0  0
    1.1625   -0.1375    0.0000 C   0  0  0  0  0  0  0  0  0  0  0  0
    0.4417   -1.3750    0.0000 C   0  0  0  0  0  0  0  0  0  0  0  0
   -0.2625   -0.1375    0.0000 N   0  0  0  0  0  0  0  0  0  0  0  0
    2.0542   -2.7750    0.0000 C   0  0  0  0  0  0  0  0  0  0  0  0
   -0.2625    0.6875    0.0000 C   0  0  0  0  0  0  0  0  0  0  0  0
    1.1625    0.6958    0.0000 O   0  0  0  0  0  0  0  0  0  0  0  0
    0.4500    1.1000    0.0000 O   0  0  0  0  0  0  0  0  0  0  0  0
    1.8792   -0.5500    0.0000 O   0  0  0  0  0  0  0  0  0  0  0  0
    0.7000   -3.2167    0.0000 C   0  0  0  0  0  0  0  0  0  0  0  0
   -0.9833    1.1083    0.0000 C   0  0  0  0  0  0  0  0  0  0  0  0
    2.3125   -3.5542    0.0000 C   0  0  0  0  0  0  0  0  0  0  0  0
    0.9500   -4.0000    0.0000 C   0  0  0  0  0  0  0  0  0  0  0  0
    1.7542   -4.1750    0.0000 C   0  0  0  0  0  0  0  0  0  0  0  0
  2  3  1  0
  3  1  2  0
  4  7  1  6
  5  1  1  0
  6  4  1  0
  7  1  1  0
  8  4  1  0
  9  5  2  0
 10  8  1  0
 11  6  2  0
 12 10  2  0
 13  6  1  0
 14  5  1  0
 15 10  1  0
 16  9  1  0
 17 14  2  0
 18 17  1  0
  9  2  1  0
 18 16  2  0
M  END
>  <ID>  (2375) 


>  <MOLENAME>  (2375) 
ACETYLTRYPTOPHAN

>  <therap>  (2375) 
antidepressant, NK1 receptor antagonist

>  <ref>  (2375) 
J Biol Chem 213:433 (1955); J Med Chem 38:923 (1995); PLoS ONE 7: e34138 (2012) 

>  <cas#>  (2375) 
1218-34-4

>  <source>  (2375) 
synthetic

>  <status>  (2375) 
experimental

>  <tradename>  (2375) 
nan

>  <SMILES>  (2375) 
CC(=O)N[C@@H](Cc1c[nH]c2c1cccc2)C(=O)O

>  <standardized_failed>  (2375) 
False

$$$$

     RDKit          2D

 13 12  0  0  0  0  0  0  0  0999 V2000
    7.2542   -3.0875    0.0000 C   0  0  0  0  0  0  0  0  0  0  0  0
    5.9000   -3.5167    0.0000 N   0  0  0  0  0  0  0  0  0  0  0  0
    6.4542   -2.9125    0.0000 C   0  0  0  0  0  0  0  0  0  0  0  0
    5.1000   -3.3417    0.0000 C   0  0  0  0  0  0  0  0  0  0  0  0
    6.5042   -0.7292    0.0000 C   0  0  0  0  0  0  0  0  0  0  0  0
    7.8042   -2.4792    0.0000 O   0  0  0  0  0  0  0  0  0  0  0  0
    4.8417   -2.5542    0.0000 O   0  0  0  0  0  0  0  0  0  0  0  0
    7.0542   -0.1292    0.0000 O   0  0  0  0  0  0  0  0  0  0  0  0
    6.2000   -2.1250    0.0000 C   0  0  0  0  0  0  0  0  0  0  0  0
    6.7542   -1.5167    0.0000 C   0  0  0  0  0  0  0  0  0  0  0  0
    7.5042   -3.8667    0.0000 O   0  0  0  0  0  0  0  0  0  0  0  0
    5.7042   -0.5542    0.0000 O   0  0  0  0  0  0  0  0  0  0  0  0
    4.5417   -3.9542    0.0000 C   0  0  0  0  0  0  0  0  0  0  0  0
  3  2  1  0
  3  1  1  0
  4  2  1  0
  5 10  1  0
  6  1  2  0
  7  4  2  0
  8  5  2  0
  3  9  1  1
 10  9  1  0
 11  1  1  0
 12  5  1  0
 13  4  1  0
M  END
>  <ID>  (2376) 


>  <MOLENAME>  (2376) 
ACETYLGLUTAMIC ACID

>  <therap>  (2376) 
activates carbamoyl phosphate synthetase 

>  <ref>  (2376) 
J Nutr 108:1215 (1978); Food Chemical Toxicol 47:2723 (2009)

>  <cas#>  (2376) 
nan

>  <source>  (2376) 
synthetic

>  <status>  (2376) 
experimental

>  <tradename>  (2376) 
nan

>  <SMILES>  (2376) 
CC(=O)N[C@@H](CCC(=O)O)C(=O)O

>  <standardized_failed>  (2376) 
False

$$$$

     RDKit          2D

 43 46  0  0  0  0  0  0  0  0999 V2000
    4.2292   -6.7375    0.0000 C   0  0  0  0  0  0  0  0  0  0  0  0
    2.6292   -6.8042    0.0000 C   0  0  0  0  0  0  0  0  0  0  0  0
    4.9500   -7.1500    0.0000 C   0  0  0  0  0  0  0  0  0  0  0  0
    2.0042   -7.3292    0.0000 C   0  0  0  0  0  0  0  0  0  0  0  0
    4.2292   -5.9042    0.0000 C   0  0  0  0  0  0  0  0  0  0  0  0
    1.2292   -7.0542    0.0000 C   0  0  0  0  0  0  0  0  0  0  0  0
    7.0917   -9.2250    0.0000 C   0  0  0  0  0  0  0  0  0  0  0  0
    3.4125   -7.0917    0.0000 O   0  0  0  0  0  0  0  0  0  0  0  0
    5.6625   -6.7375    0.0000 O   0  0  0  0  0  0  0  0  0  0  0  0
    2.4917   -5.9917    0.0000 O   0  0  0  0  0  0  0  0  0  0  0  0
    4.9500   -5.4917    0.0000 C   0  0  0  0  0  0  0  0  0  0  0  0
    1.0792   -6.2417    0.0000 C   0  0  0  0  0  0  0  0  0  0  0  0
    7.0917   -8.4000    0.0000 C   0  0  0  0  0  0  0  0  0  0  0  0
    6.3792   -9.6375    0.0000 C   0  0  0  0  0  0  0  0  0  0  0  0
    5.6625   -5.9042    0.0000 C   0  0  0  0  0  0  0  0  0  0  0  0
    1.7167   -5.7042    0.0000 C   0  0  0  0  0  0  0  0  0  0  0  0
    5.6667   -8.4000    0.0000 C   0  0  0  0  0  0  0  0  0  0  0  0
    4.9417   -7.9792    0.0000 O   0  0  0  0  0  0  0  0  0  0  0  0
    5.6667   -9.2250    0.0000 C   0  0  0  0  0  0  0  0  0  0  0  0
    6.3792   -7.9875    0.0000 C   0  0  0  0  0  0  0  0  0  0  0  0
    7.8042   -9.6375    0.0000 C   0  0  0  0  0  0  0  0  0  0  0  0
    9.9500   -6.7417    0.0000 C   0  0  0  0  0  0  0  0  0  0  0  0
   10.6667   -7.1542    0.0000 C   0  0  0  0  0  0  0  0  0  0  0  0
    9.2375   -7.1542    0.0000 C   0  0  0  0  0  0  0  0  0  0  0  0
    7.8042  -10.4625    0.0000 O   0  0  0  0  0  0  0  0  0  0  0  0
    8.5250   -9.2250    0.0000 C   0  0  0  0  0  0  0  0  0  0  0  0
    2.1417   -8.1417    0.0000 O   0  0  0  0  0  0  0  0  0  0  0  0
    3.5125   -5.4875    0.0000 O   0  0  0  0  0  0  0  0  0  0  0  0
    0.5917   -7.5792    0.0000 O   0  0  0  0  0  0  0  0  0  0  0  0
   10.6667   -7.9875    0.0000 C   0  0  0  0  0  0  0  0  0  0  0  0
    4.9500   -4.6667    0.0000 O   0  0  0  0  0  0  0  0  0  0  0  0
    6.3792  -10.4625    0.0000 O   0  0  0  0  0  0  0  0  0  0  0  0
    7.8042   -7.9875    0.0000 O   0  0  0  0  0  0  0  0  0  0  0  0
    0.2917   -5.9667    0.0000 O   0  0  0  0  0  0  0  0  0  0  0  0
    9.2375   -7.9875    0.0000 C   0  0  0  0  0  0  0  0  0  0  0  0
    9.9417   -5.9167    0.0000 O   0  0  0  0  0  0  0  0  0  0  0  0
    8.5250   -8.4000    0.0000 C   0  0  0  0  0  0  0  0  0  0  0  0
    9.9542   -8.4000    0.0000 C   0  0  0  0  0  0  0  0  0  0  0  0
    6.3792   -5.4792    0.0000 C   0  0  0  0  0  0  0  0  0  0  0  0
   11.3917   -6.7417    0.0000 O   0  0  0  0  0  0  0  0  0  0  0  0
    7.1042   -5.8917    0.0000 O   0  0  0  0  0  0  0  0  0  0  0  0
    1.5917   -4.8917    0.0000 C   0  0  0  0  0  0  0  0  0  0  0  0
   12.1167   -7.1542    0.0000 C   0  0  0  0  0  0  0  0  0  0  0  0
  2  8  1  1
  3  1  1  0
  4  2  1  0
  5  1  1  0
  6  4  1  0
  7 13  2  0
  8  1  1  0
  9  3  1  0
 10  2  1  0
 11  5  1  0
 12 16  1  0
 13 20  1  0
 14 19  2  0
 15 11  1  0
 16 10  1  0
 17 18  1  0
  3 18  1  1
 19 17  1  0
 20 17  2  0
 21  7  1  0
 22 24  2  0
 23 30  2  0
 24 35  1  0
 25 21  2  0
 26 21  1  0
  4 27  1  6
  5 28  1  1
  6 29  1  6
 30 38  1  0
 31 11  1  0
 32 14  1  0
 33 13  1  0
 12 34  1  1
 35 37  1  0
 36 22  1  0
 37 26  1  0
 38 35  2  0
 15 39  1  1
 40 23  1  0
 41 39  1  0
 16 42  1  6
 43 40  1  0
  9 15  1  0
  6 12  1  0
  7 14  1  0
 23 22  1  0
M  END
>  <ID>  (2377) 


>  <MOLENAME>  (2377) 
NEOHESPERIDIN DIHYDROCHALCONE

>  <therap>  (2377) 
sweetener, antioxidant

>  <ref>  (2377) 
J Med Chem 24:408 (1981); Phytomed 5:469 (1998); Biol Pharm Bull. 30:324 (2007)

>  <cas#>  (2377) 
20702-77-6 

>  <source>  (2377) 
semisynthetic

>  <status>  (2377) 
experimental

>  <tradename>  (2377) 
nan

>  <SMILES>  (2377) 
COc1ccc(CCC(=O)c2c(O)cc(O[C@@H]3O[C@H](CO)C(O)[C@H](O)C3O[C@@H]3O[C@@H](C)[C@H](O)[C@@H](O)[C@H]3O)cc2O)cc1O

>  <standardized_failed>  (2377) 
False

$$$$

     RDKit          2D

 20 22  0  0  0  0  0  0  0  0999 V2000
    3.9500   -1.8292    0.0000 C   0  0  0  0  0  0  0  0  0  0  0  0
    2.6500   -1.8292    0.0000 C   0  0  0  0  0  0  0  0  0  0  0  0
    2.6500   -2.5792    0.0000 C   0  0  0  0  0  0  0  0  0  0  0  0
    3.2917   -1.4500    0.0000 C   0  0  0  0  0  0  0  0  0  0  0  0
    3.2917   -2.9542    0.0000 C   0  0  0  0  0  0  0  0  0  0  0  0
    3.9500   -2.5792    0.0000 C   0  0  0  0  0  0  0  0  0  0  0  0
    4.6042   -1.4500    0.0000 C   0  0  0  0  0  0  0  0  0  0  0  0
    4.6042   -2.9542    0.0000 C   0  0  0  0  0  0  0  0  0  0  0  0
    1.9917   -2.9542    0.0000 C   0  0  0  0  0  0  0  0  0  0  0  0
    1.9917   -1.4500    0.0000 C   0  0  0  0  0  0  0  0  0  0  0  0
    3.2917   -0.7000    0.0000 O   0  0  0  0  0  0  0  0  0  0  0  0
    3.2917   -3.7042    0.0000 O   0  0  0  0  0  0  0  0  0  0  0  0
    5.2542   -1.8292    0.0000 C   0  0  0  0  0  0  0  0  0  0  0  0
    5.2542   -2.5792    0.0000 C   0  0  0  0  0  0  0  0  0  0  0  0
    1.3417   -1.8292    0.0000 C   0  0  0  0  0  0  0  0  0  0  0  0
    1.3417   -2.5792    0.0000 C   0  0  0  0  0  0  0  0  0  0  0  0
    4.6042   -0.7000    0.0000 O   0  0  0  0  0  0  0  0  0  0  0  0
    1.9917   -3.7042    0.0000 O   0  0  0  0  0  0  0  0  0  0  0  0
    1.9917   -0.7000    0.0000 O   0  0  0  0  0  0  0  0  0  0  0  0
    5.9042   -1.4542    0.0000 O   0  0  0  0  0  0  0  0  0  0  0  0
  2  4  1  0
  3  5  1  0
  4  1  1  0
  5  6  1  0
  6  1  2  0
  7  1  1  0
  8  6  1  0
  9  3  2  0
 10  2  2  0
 11  4  2  0
 12  5  2  0
 13  7  2  0
 14 13  1  0
 15 10  1  0
 16  9  1  0
 17  7  1  0
 18  9  1  0
 19 10  1  0
 20 13  1  0
 14  8  2  0
  3  2  1  0
 16 15  2  0
M  END
>  <ID>  (2378) 


>  <MOLENAME>  (2378) 
QUINALIZARIN

>  <therap>  (2378) 
antiviral, HIV-1 integrase inhibitor

>  <ref>  (2378) 
PNAS 93:9742 (1996); J Biol Chem 276:46946 (2001); Current Med Chem 10:1795 (2003)

>  <cas#>  (2378) 
81-61-8

>  <source>  (2378) 
synthetic

>  <status>  (2378) 
experimental

>  <tradename>  (2378) 
nan

>  <SMILES>  (2378) 
O=C1c2c(C(=O)c3c(O)ccc(O)c13)c(O)c(O)cc2

>  <standardized_failed>  (2378) 
False

$$$$

     RDKit          2D

  8  6  0  0  0  0  0  0  0  0999 V2000
    6.1750   -4.6417    0.0000 C   0  0  0  0  0  0  0  0  0  0  0  0
    9.2917   -5.7542    0.0000 C   0  0  0  0  0  0  0  0  0  0  0  0
    6.1750   -5.3917    0.0000 N   0  0  0  0  0  0  0  0  0  0  0  0
    9.2917   -5.0875    0.0000 O   0  0  0  0  0  0  0  0  0  0  0  0
    5.5250   -4.2667    0.0000 N   0  0  0  0  0  0  0  0  0  0  0  0
    6.8250   -4.2667    0.0000 N   0  0  0  0  0  0  0  0  0  0  0  0
    9.8750   -6.0917    0.0000 O   0  0  0  0  0  0  0  0  0  0  0  0
    8.7125   -6.0875    0.0000 O   0  0  0  0  0  0  0  0  0  0  0  0
  3  1  2  0
  4  2  2  0
  5  1  1  0
  6  1  1  0
  7  2  1  0
  8  2  1  0
M  END
>  <ID>  (2379) 


>  <MOLENAME>  (2379) 
GUANIDINE CARBONATE

>  <therap>  (2379) 
striated muscle stimulant, cholinergic

>  <ref>  (2379) 
Bull Exp Biol Med 61:291 (1966); Engl J Med 286:141 (1973); Muscle Nerve 20:1146 (1997)

>  <cas#>  (2379) 
593-85-1

>  <source>  (2379) 
synthetic

>  <status>  (2379) 
experimental

>  <tradename>  (2379) 
nan

>  <SMILES>  (2379) 
N=C(N)N

>  <standardized_failed>  (2379) 
False

$$$$

     RDKit          2D

 45 49  0  0  0  0  0  0  0  0999 V2000
    6.1333   -2.2917    0.0000 C   0  0  0  0  0  0  0  0  0  0  0  0
    6.7750   -2.6667    0.0000 C   0  0  0  0  0  0  0  0  0  0  0  0
    5.4792   -2.6667    0.0000 C   0  0  0  0  0  0  0  0  0  0  0  0
    6.7750   -1.9167    0.0000 O   0  0  0  0  0  0  0  0  0  0  0  0
    5.5792   -1.7958    0.0000 C   0  0  0  0  0  0  0  0  0  0  0  0
    5.4792   -3.4167    0.0000 C   0  0  0  0  0  0  0  0  0  0  0  0
    6.7750   -3.4167    0.0000 C   0  0  0  0  0  0  0  0  0  0  0  0
    6.6167   -1.1917    0.0000 C   0  0  0  0  0  0  0  0  0  0  0  0
    6.1292   -3.7917    0.0000 O   0  0  0  0  0  0  0  0  0  0  0  0
    5.8792   -1.1208    0.0000 C   0  0  0  0  0  0  0  0  0  0  0  0
    7.4250   -2.2917    0.0000 C   0  0  0  0  0  0  0  0  0  0  0  0
    4.8375   -2.2917    0.0000 C   0  0  0  0  0  0  0  0  0  0  0  0
    4.1875   -2.6667    0.0000 C   0  0  0  0  0  0  0  0  0  0  0  0
    8.0750   -2.6667    0.0000 C   0  0  0  0  0  0  0  0  0  0  0  0
    7.4250   -3.7917    0.0000 C   0  0  0  0  0  0  0  0  0  0  0  0
    4.8375   -3.7917    0.0000 C   0  0  0  0  0  0  0  0  0  0  0  0
    8.0750   -3.4167    0.0000 C   0  0  0  0  0  0  0  0  0  0  0  0
    4.1875   -3.4167    0.0000 C   0  0  0  0  0  0  0  0  0  0  0  0
    9.3667   -2.6625    0.0000 N   0  0  0  0  0  0  0  0  0  0  0  0
    2.8875   -2.6625    0.0000 N   0  0  0  0  0  0  0  0  0  0  0  0
    8.7167   -2.2875    0.0000 C   0  0  0  0  0  0  0  0  0  0  0  0
    3.5375   -2.2875    0.0000 C   0  0  0  0  0  0  0  0  0  0  0  0
   10.0750   -3.7750    0.0000 C   0  0  0  0  0  0  0  0  0  0  0  0
   10.0208   -1.4125    0.0000 C   0  0  0  0  0  0  0  0  0  0  0  0
    2.2292   -1.4125    0.0000 C   0  0  0  0  0  0  0  0  0  0  0  0
    2.1750   -3.7750    0.0000 C   0  0  0  0  0  0  0  0  0  0  0  0
    7.1125   -0.6375    0.0000 O   0  0  0  0  0  0  0  0  0  0  0  0
    2.8750   -3.4375    0.0000 C   0  0  0  0  0  0  0  0  0  0  0  0
    2.8917   -1.8625    0.0000 C   0  0  0  0  0  0  0  0  0  0  0  0
    9.3625   -1.8625    0.0000 C   0  0  0  0  0  0  0  0  0  0  0  0
    9.3750   -3.4375    0.0000 C   0  0  0  0  0  0  0  0  0  0  0  0
   10.0833   -4.4375    0.0000 O   0  0  0  0  0  0  0  0  0  0  0  0
   10.0208   -0.8500    0.0000 O   0  0  0  0  0  0  0  0  0  0  0  0
    2.2292   -0.8500    0.0000 O   0  0  0  0  0  0  0  0  0  0  0  0
    2.1625   -4.4375    0.0000 O   0  0  0  0  0  0  0  0  0  0  0  0
    3.5292   -3.7917    0.0000 O   0  0  0  0  0  0  0  0  0  0  0  0
    8.7250   -3.7917    0.0000 O   0  0  0  0  0  0  0  0  0  0  0  0
    4.8500   -1.8750    0.0000 C   0  0  0  0  0  0  0  0  0  0  0  0
   10.6458   -1.8500    0.0000 O   0  0  0  0  0  0  0  0  0  0  0  0
    1.6042   -1.8500    0.0000 O   0  0  0  0  0  0  0  0  0  0  0  0
    1.4750   -3.7875    0.0000 O   0  0  0  0  0  0  0  0  0  0  0  0
   10.7708   -3.7875    0.0000 O   0  0  0  0  0  0  0  0  0  0  0  0
    5.4458   -0.5250    0.0000 C   0  0  0  0  0  0  0  0  0  0  0  0
    4.4125   -1.2833    0.0000 C   0  0  0  0  0  0  0  0  0  0  0  0
    4.7083   -0.6042    0.0000 C   0  0  0  0  0  0  0  0  0  0  0  0
  2  1  1  0
  3  1  1  0
  4  1  1  0
  5  1  1  0
  6  3  2  0
  7  2  2  0
  8  4  1  0
  9  7  1  0
 10  5  2  0
 11  2  1  0
 12  3  1  0
 13 12  2  0
 14 11  2  0
 15  7  1  0
 16  6  1  0
 17 15  2  0
 18 16  2  0
 19 21  1  0
 20 22  1  0
 21 14  1  0
 22 13  1  0
 23 31  1  0
 24 30  1  0
 25 29  1  0
 26 28  1  0
 27  8  2  0
 28 20  1  0
 29 20  1  0
 30 19  1  0
 31 19  1  0
 32 23  2  0
 33 24  2  0
 34 25  2  0
 35 26  2  0
 36 18  1  0
 37 17  1  0
 38  5  1  0
 39 24  1  0
 40 25  1  0
 41 26  1  0
 42 23  1  0
 43 10  1  0
 44 38  2  0
 45 44  1  0
 10  8  1  0
  9  6  1  0
 14 17  1  0
 45 43  2  0
 18 13  1  0
M  END
>  <ID>  (2380) 


>  <MOLENAME>  (2380) 
CALCEIN

>  <therap>  (2380) 
chelating agent (Ca, Mg)

>  <ref>  (2380) 
J Neurosci Methods 71:205 (1997)

>  <cas#>  (2380) 
1461-15-0

>  <source>  (2380) 
synthetic

>  <status>  (2380) 
experimental

>  <tradename>  (2380) 
nan

>  <SMILES>  (2380) 
O=C(O)CN(CC(=O)O)Cc1cc2c(cc1O)Oc1c(cc(CN(CC(=O)O)CC(=O)O)c(O)c1)C21OC(=O)c2c1cccc2

>  <standardized_failed>  (2380) 
False

$$$$

     RDKit          2D

 25 28  0  0  0  0  0  0  0  0999 V2000
    0.4292    1.1042    0.0000 S   0  0  0  0  0  0  0  0  0  0  0  0
    0.9208    0.4333    0.0000 O   0  0  0  0  0  0  0  0  0  0  0  0
    0.4292   -0.2417    0.0000 C   0  0  0  0  0  0  0  0  0  0  0  0
   -0.3583    0.0167    0.0000 C   0  0  0  0  0  0  0  0  0  0  0  0
   -0.3583    0.8458    0.0000 C   0  0  0  0  0  0  0  0  0  0  0  0
   -0.1583    1.6958    0.0000 O   0  0  0  0  0  0  0  0  0  0  0  0
    1.1417    1.5208    0.0000 O   0  0  0  0  0  0  0  0  0  0  0  0
    0.0125   -0.9542    0.0000 C   0  0  0  0  0  0  0  0  0  0  0  0
    1.2250   -0.4542    0.0000 C   0  0  0  0  0  0  0  0  0  0  0  0
   -0.8167   -0.9417    0.0000 C   0  0  0  0  0  0  0  0  0  0  0  0
    0.4167   -1.6667    0.0000 C   0  0  0  0  0  0  0  0  0  0  0  0
    1.4333   -1.2458    0.0000 C   0  0  0  0  0  0  0  0  0  0  0  0
    1.7958    0.1250    0.0000 C   0  0  0  0  0  0  0  0  0  0  0  0
   -1.0750   -0.3958    0.0000 C   0  0  0  0  0  0  0  0  0  0  0  0
   -0.8333   -2.3750    0.0000 C   0  0  0  0  0  0  0  0  0  0  0  0
    2.8042   -0.8792    0.0000 C   0  0  0  0  0  0  0  0  0  0  0  0
    0.0000   -2.3792    0.0000 C   0  0  0  0  0  0  0  0  0  0  0  0
    2.5875   -0.0833    0.0000 C   0  0  0  0  0  0  0  0  0  0  0  0
   -1.2375   -1.6500    0.0000 C   0  0  0  0  0  0  0  0  0  0  0  0
    2.2250   -1.4583    0.0000 C   0  0  0  0  0  0  0  0  0  0  0  0
   -1.0750    1.2583    0.0000 C   0  0  0  0  0  0  0  0  0  0  0  0
   -1.2500   -3.0875    0.0000 O   0  0  0  0  0  0  0  0  0  0  0  0
    3.6000   -1.0917    0.0000 O   0  0  0  0  0  0  0  0  0  0  0  0
   -1.7875    0.0167    0.0000 C   0  0  0  0  0  0  0  0  0  0  0  0
   -1.7875    0.8458    0.0000 C   0  0  0  0  0  0  0  0  0  0  0  0
  2  1  1  0
  3  2  1  0
  4  5  2  0
  5  1  1  0
  6  1  2  0
  7  1  2  0
  8  3  1  0
  9  3  1  0
 10  8  2  0
 11  8  1  0
 12  9  2  0
 13  9  1  0
 14  4  1  0
 15 17  1  0
 16 18  1  0
 17 11  2  0
 18 13  2  0
 19 10  1  0
 20 12  1  0
 21  5  1  0
 22 15  1  0
 23 16  1  0
 24 14  2  0
 25 21  2  0
  3  4  1  0
 24 25  1  0
 16 20  2  0
 15 19  2  0
M  END
>  <ID>  (2381) 


>  <MOLENAME>  (2381) 
PHENOLSULFONPHTHALEIN

>  <therap>  (2381) 
diagnostic aid [renal]

>  <ref>  (2381) 
Anal Profiles Drug Subs 20:627 (1991); Fundam Appl Toxicol 18:46 (1992)

>  <cas#>  (2381) 
143-74-8

>  <source>  (2381) 
synthetic

>  <status>  (2381) 
NF, JAN

>  <tradename>  (2381) 
PHENOL RED

>  <SMILES>  (2381) 
O=S1(=O)OC(c2ccc(O)cc2)(c2ccc(O)cc2)c2c1cccc2

>  <standardized_failed>  (2381) 
False

$$$$

     RDKit          2D

 22 23  0  0  0  0  0  0  0  0999 V2000
    3.4875    2.0458    0.0000 C   0  0  0  0  0  0  0  0  0  0  0  0
    0.1875    2.0458    0.0000 C   0  0  0  0  0  0  0  0  0  0  0  0
    0.6000    1.3333    0.0000 C   0  0  0  0  0  0  0  0  0  0  0  0
    0.6000    2.7583    0.0000 C   0  0  0  0  0  0  0  0  0  0  0  0
    3.9000    1.3333    0.0000 C   0  0  0  0  0  0  0  0  0  0  0  0
    3.8875    2.7708    0.0000 C   0  0  0  0  0  0  0  0  0  0  0  0
    1.8375    2.0458    0.0000 C   0  0  0  0  0  0  0  0  0  0  0  0
    2.6625    2.0458    0.0000 O   0  0  0  0  0  0  0  0  0  0  0  0
    1.4250    2.7583    0.0000 C   0  0  0  0  0  0  0  0  0  0  0  0
    1.4250    1.3333    0.0000 C   0  0  0  0  0  0  0  0  0  0  0  0
    5.1292    2.0583    0.0000 C   0  0  0  0  0  0  0  0  0  0  0  0
    6.3750    1.3458    0.0000 C   0  0  0  0  0  0  0  0  0  0  0  0
    4.7125    2.7708    0.0000 C   0  0  0  0  0  0  0  0  0  0  0  0
    4.7250    1.3458    0.0000 C   0  0  0  0  0  0  0  0  0  0  0  0
    5.9667    0.6333    0.0000 O   0  0  0  0  0  0  0  0  0  0  0  0
    5.9542    2.0583    0.0000 C   0  0  0  0  0  0  0  0  0  0  0  0
    0.1875    0.6208    0.0000 I   0  0  0  0  0  0  0  0  0  0  0  0
    0.1792    3.4708    0.0000 I   0  0  0  0  0  0  0  0  0  0  0  0
    3.4875    0.6208    0.0000 I   0  0  0  0  0  0  0  0  0  0  0  0
    3.4667    3.4708    0.0000 I   0  0  0  0  0  0  0  0  0  0  0  0
   -0.6375    2.0458    0.0000 O   0  0  0  0  0  0  0  0  0  0  0  0
    7.2000    1.3583    0.0000 O   0  0  0  0  0  0  0  0  0  0  0  0
  2  3  2  0
  3 10  1  0
  4  9  2  0
  5  1  2  0
  6  1  1  0
  7  8  1  0
  8  1  1  0
  9  7  1  0
 10  7  2  0
 11 13  1  0
 12 16  1  0
 13  6  2  0
 14  5  1  0
 15 12  2  0
 16 11  1  0
 17  3  1  0
 18  4  1  0
 19  5  1  0
 20  6  1  0
 21  2  1  0
 22 12  1  0
 11 14  2  0
  2  4  1  0
M  END
>  <ID>  (2382) 


>  <MOLENAME>  (2382) 
TETRAC

>  <therap>  (2382) 
antineoplastic, thyroid hormone

>  <ref>  (2382) 
Anticancer Res 29:3825 (2009); Endocrinol 154:968 (2013)

>  <cas#>  (2382) 
67-30-1

>  <source>  (2382) 
synthetic

>  <status>  (2382) 
experimental

>  <tradename>  (2382) 
nan

>  <SMILES>  (2382) 
O=C(O)Cc1cc(I)c(Oc2cc(I)c(O)c(I)c2)c(I)c1

>  <standardized_failed>  (2382) 
False

$$$$

     RDKit          2D

 28 29  0  0  0  0  0  0  0  0999 V2000
    4.1500    0.6250    0.0000 N   0  0  0  0  0  0  0  0  0  0  0  0
    3.3500    0.4000    0.0000 C   0  0  0  0  0  0  0  0  0  0  0  0
    4.3625   -0.1875    0.0000 C   0  0  0  0  0  0  0  0  0  0  0  0
    3.5625   -0.4000    0.0000 C   0  0  0  0  0  0  0  0  0  0  0  0
    4.7375    1.2125    0.0000 C   0  0  0  0  0  0  0  0  0  0  0  0
    5.1750   -0.4000    0.0000 S   0  0  0  0  0  0  0  0  0  0  0  0
    5.5500    1.0000    0.0000 C   0  0  0  0  0  0  0  0  0  0  0  0
    3.5125   -1.0792    0.0000 N   0  0  0  0  0  0  0  0  0  0  0  0
    4.5250    2.0250    0.0000 C   0  0  0  0  0  0  0  0  0  0  0  0
    5.7625    0.1875    0.0000 C   0  0  0  0  0  0  0  0  0  0  0  0
   -0.0875   -2.3500    0.0000 C   0  0  0  0  0  0  0  0  0  0  0  0
    2.6250    0.8125    0.0000 O   0  0  0  0  0  0  0  0  0  0  0  0
    2.7875   -1.5000    0.0000 C   0  0  0  0  0  0  0  0  0  0  0  0
    6.1375    1.5875    0.0000 C   0  0  0  0  0  0  0  0  0  0  0  0
    7.1500    0.5708    0.0000 C   0  0  0  0  0  0  0  0  0  0  0  0
    3.7250    2.2375    0.0000 O   0  0  0  0  0  0  0  0  0  0  0  0
   -0.0875   -1.5250    0.0000 O   0  0  0  0  0  0  0  0  0  0  0  0
    6.9375    1.3708    0.0000 O   0  0  0  0  0  0  0  0  0  0  0  0
    2.7875   -2.3292    0.0000 O   0  0  0  0  0  0  0  0  0  0  0  0
    6.5625   -0.0125    0.0000 O   0  0  0  0  0  0  0  0  0  0  0  0
    0.6375   -2.7625    0.0000 C   0  0  0  0  0  0  0  0  0  0  0  0
    5.1125    2.6125    0.0000 O   0  0  0  0  0  0  0  0  0  0  0  0
   -0.8000   -2.7667    0.0000 O   0  0  0  0  0  0  0  0  0  0  0  0
    0.6375   -3.5875    0.0000 N   0  0  0  0  0  0  0  0  0  0  0  0
    2.0625   -1.0875    0.0000 C   0  0  0  0  0  0  0  0  0  0  0  0
    1.3500   -1.5042    0.0000 C   0  0  0  0  0  0  0  0  0  0  0  0
    7.9375    0.3500    0.0000 C   0  0  0  0  0  0  0  0  0  0  0  0
    1.3500   -2.3500    0.0000 C   0  0  0  0  0  0  0  0  0  0  0  0
  2  1  1  0
  3  1  1  0
  4  3  1  0
  5  1  1  0
  6  3  1  0
  7  5  2  0
  4  8  1  6
  9  5  1  0
 10  7  1  0
 11 21  1  0
 12  2  2  0
 13  8  1  0
 14  7  1  0
 15 18  1  0
 16  9  2  0
 17 11  2  0
 18 14  1  0
 19 13  2  0
 20 15  2  0
 21 28  1  0
 22  9  1  0
 23 11  1  0
 24 21  1  0
 25 13  1  0
 26 25  1  0
 27 15  1  0
 28 26  1  0
  2  4  1  0
  6 10  1  0
M  END
>  <ID>  (2383) 


>  <MOLENAME>  (2383) 
CEPHALOSPORIN C

>  <therap>  (2383) 
antibacterial

>  <ref>  (2383) 
Br J Pharmacol 16:170 (1961); Q Rev Chem Soc 21:231 (1967)

>  <cas#>  (2383) 
61-24-5

>  <source>  (2383) 
Cephalosprium acremonium

>  <status>  (2383) 
BAN

>  <tradename>  (2383) 
nan

>  <SMILES>  (2383) 
CC(=O)OCC1=C(C(=O)O)N2C(=O)[C@@H](NC(=O)CCCC(N)C(=O)O)C2SC1

>  <standardized_failed>  (2383) 
False

$$$$

     RDKit          2D

 16 17  0  0  0  0  0  0  0  0999 V2000
    3.5042   -1.2042    0.0000 C   0  0  0  0  0  0  0  0  0  0  0  0
    3.5125   -2.8542    0.0000 N   0  0  0  0  0  0  0  0  0  0  0  0
    2.7917   -1.6167    0.0000 C   0  0  0  0  0  0  0  0  0  0  0  0
    2.7917   -2.4417    0.0000 C   0  0  0  0  0  0  0  0  0  0  0  0
    4.2167   -1.6125    0.0000 C   0  0  0  0  0  0  0  0  0  0  0  0
    4.2250   -2.4417    0.0000 C   0  0  0  0  0  0  0  0  0  0  0  0
    2.0792   -1.2042    0.0000 C   0  0  0  0  0  0  0  0  0  0  0  0
    2.0792   -2.8625    0.0000 C   0  0  0  0  0  0  0  0  0  0  0  0
    1.3667   -1.6250    0.0000 C   0  0  0  0  0  0  0  0  0  0  0  0
    1.3667   -2.4500    0.0000 C   0  0  0  0  0  0  0  0  0  0  0  0
    3.5000   -0.3792    0.0000 C   0  0  0  0  0  0  0  0  0  0  0  0
    0.6542   -1.2125    0.0000 O   0  0  0  0  0  0  0  0  0  0  0  0
    4.4875   -3.2167    0.0000 C   0  0  0  0  0  0  0  0  0  0  0  0
    4.9250   -2.4042    0.0000 C   0  0  0  0  0  0  0  0  0  0  0  0
    0.6542   -0.3875    0.0000 C   0  0  0  0  0  0  0  0  0  0  0  0
   -0.0625    0.0250    0.0000 C   0  0  0  0  0  0  0  0  0  0  0  0
  2  6  1  0
  3  1  1  0
  4  3  2  0
  5  1  2  0
  6  5  1  0
  7  3  1  0
  8  4  1  0
  9  7  2  0
 10  9  1  0
 11  1  1  0
 12  9  1  0
 13  6  1  0
 14  6  1  0
 15 12  1  0
 16 15  1  0
  2  4  1  0
 10  8  2  0
M  END
>  <ID>  (2384) 


>  <MOLENAME>  (2384) 
ETHOXYQUIN

>  <therap>  (2384) 
antioxidant, pesticide

>  <ref>  (2384) 
Agric Food Chem 7:206 (1959); Xenobiotica 9:649 (1979)

>  <cas#>  (2384) 
nan

>  <source>  (2384) 
synthetic

>  <status>  (2384) 
experimental

>  <tradename>  (2384) 
nan

>  <SMILES>  (2384) 
CCOc1cc2c(cc1)NC(C)(C)C=C2C

>  <standardized_failed>  (2384) 
False

$$$$

     RDKit          2D

 25 26  0  0  0  0  0  0  0  0999 V2000
    6.1750   -6.3750    0.0000 C   0  0  0  0  0  0  0  0  0  0  0  0
    6.1792   -7.2000    0.0000 C   0  0  0  0  0  0  0  0  0  0  0  0
    6.8917   -5.9625    0.0000 C   0  0  0  0  0  0  0  0  0  0  0  0
    5.4542   -3.4917    0.0000 C   0  0  0  0  0  0  0  0  0  0  0  0
    4.7417   -4.7292    0.0000 N   0  0  0  0  0  0  0  0  0  0  0  0
    4.7417   -3.9042    0.0000 C   0  0  0  0  0  0  0  0  0  0  0  0
    3.5792   -5.1500    0.0000 Cl  0  0  0  0  0  0  0  0  0  0  0  0
    5.4625   -5.1417    0.0000 C   0  0  0  0  0  0  0  0  0  0  0  0
    5.4625   -5.9667    0.0000 C   0  0  0  0  0  0  0  0  0  0  0  0
    7.6042   -6.3750    0.0000 C   0  0  0  0  0  0  0  0  0  0  0  0
    6.8875   -5.1417    0.0000 C   0  0  0  0  0  0  0  0  0  0  0  0
    6.9000   -7.6125    0.0000 C   0  0  0  0  0  0  0  0  0  0  0  0
    5.4667   -7.6167    0.0000 C   0  0  0  0  0  0  0  0  0  0  0  0
    5.4500   -2.6750    0.0000 C   0  0  0  0  0  0  0  0  0  0  0  0
    6.1667   -3.9042    0.0000 C   0  0  0  0  0  0  0  0  0  0  0  0
    4.0250   -3.5000    0.0000 C   0  0  0  0  0  0  0  0  0  0  0  0
    8.3167   -5.9625    0.0000 C   0  0  0  0  0  0  0  0  0  0  0  0
    7.5917   -4.7250    0.0000 C   0  0  0  0  0  0  0  0  0  0  0  0
    6.8792   -3.4917    0.0000 C   0  0  0  0  0  0  0  0  0  0  0  0
    6.1625   -2.2542    0.0000 C   0  0  0  0  0  0  0  0  0  0  0  0
    6.9000   -8.4417    0.0000 C   0  0  0  0  0  0  0  0  0  0  0  0
    5.4667   -8.4417    0.0000 C   0  0  0  0  0  0  0  0  0  0  0  0
    6.1792   -8.8542    0.0000 C   0  0  0  0  0  0  0  0  0  0  0  0
    8.3125   -5.1375    0.0000 C   0  0  0  0  0  0  0  0  0  0  0  0
    6.8792   -2.6667    0.0000 C   0  0  0  0  0  0  0  0  0  0  0  0
  2  1  1  0
  3  1  1  0
  4  6  1  0
  5  8  1  0
  6  5  1  0
  8  9  1  0
  9  1  1  0
 10  3  2  0
 11  3  1  0
 12  2  2  0
 13  2  1  0
 14  4  2  0
 15  4  1  0
 16  6  1  0
 17 10  1  0
 18 11  2  0
 19 15  2  0
 20 14  1  0
 21 12  1  0
 22 13  2  0
 23 21  2  0
 24 18  1  0
 25 20  2  0
 24 17  2  0
 22 23  1  0
 19 25  1  0
M  END
>  <ID>  (2385) 


>  <MOLENAME>  (2385) 
FENDILINE HYDROCHLORIDE

>  <therap>  (2385) 
coronary vasodilator

>  <ref>  (2385) 
Basic Res. Cardiol. (1978), 73(2), 133-46; Basic Res. Cardiol. (1976), 71(6), 652-7; Arzneim. Forsch. (1976), 26(10), 1819-26

>  <cas#>  (2385) 
113042-18-7

>  <source>  (2385) 
synthetic

>  <status>  (2385) 
INN

>  <tradename>  (2385) 
nan

>  <SMILES>  (2385) 
CC(NCCC(c1ccccc1)c1ccccc1)c1ccccc1

>  <standardized_failed>  (2385) 
False

$$$$

     RDKit          2D

 21 24  0  0  0  0  0  0  0  0999 V2000
    1.2292   -0.5042    0.0000 N   0  0  0  0  0  0  0  0  0  0  0  0
    1.9417   -1.7542    0.0000 C   0  0  0  0  0  0  0  0  0  0  0  0
    1.9417   -0.9292    0.0000 C   0  0  0  0  0  0  0  0  0  0  0  0
    0.5167   -0.9292    0.0000 C   0  0  0  0  0  0  0  0  0  0  0  0
    0.5167   -1.7542    0.0000 C   0  0  0  0  0  0  0  0  0  0  0  0
    2.6542   -0.5167    0.0000 C   0  0  0  0  0  0  0  0  0  0  0  0
    2.6542   -2.1667    0.0000 C   0  0  0  0  0  0  0  0  0  0  0  0
    3.3667   -1.7542    0.0000 N   0  0  0  0  0  0  0  0  0  0  0  0
    1.2292    0.3208    0.0000 C   0  0  0  0  0  0  0  0  0  0  0  0
    3.3667   -0.9292    0.0000 C   0  0  0  0  0  0  0  0  0  0  0  0
    1.9417    0.7333    0.0000 C   0  0  0  0  0  0  0  0  0  0  0  0
   -0.1958   -0.5167    0.0000 C   0  0  0  0  0  0  0  0  0  0  0  0
   -0.1958   -2.1667    0.0000 C   0  0  0  0  0  0  0  0  0  0  0  0
    4.0792   -2.1792    0.0000 C   0  0  0  0  0  0  0  0  0  0  0  0
    1.9417    1.5458    0.0000 C   0  0  0  0  0  0  0  0  0  0  0  0
    2.6542    0.3083    0.0000 C   0  0  0  0  0  0  0  0  0  0  0  0
   -0.9083   -0.9292    0.0000 C   0  0  0  0  0  0  0  0  0  0  0  0
   -0.9083   -1.7542    0.0000 C   0  0  0  0  0  0  0  0  0  0  0  0
    2.6542    1.9583    0.0000 C   0  0  0  0  0  0  0  0  0  0  0  0
    3.3667    0.7208    0.0000 C   0  0  0  0  0  0  0  0  0  0  0  0
    3.3667    1.5458    0.0000 C   0  0  0  0  0  0  0  0  0  0  0  0
  2  3  2  0
  3  1  1  0
  4  1  1  0
  5  4  2  0
  6  3  1  0
  7  2  1  0
  8 10  1  0
  9  1  1  0
 10  6  1  0
 11  9  1  0
 12  4  1  0
 13  5  1  0
 14  8  1  0
 15 11  2  0
 16 11  1  0
 17 12  2  0
 18 17  1  0
 19 15  1  0
 20 16  2  0
 21 20  1  0
  2  5  1  0
 13 18  2  0
  8  7  1  0
 21 19  2  0
M  END
>  <ID>  (2386) 


>  <MOLENAME>  (2386) 
MEBHYDROLIN

>  <therap>  (2386) 
H1 antihistamine

>  <ref>  (2386) 
Farmakol Toxsikol 20(6):46 (1957)

>  <cas#>  (2386) 
524-81-2

>  <source>  (2386) 
synthetic

>  <status>  (2386) 
INN, BAN, JAN

>  <tradename>  (2386) 
DIAZOLINE

>  <SMILES>  (2386) 
CN1CCc2c(C1)c1c(cccc1)n2Cc1ccccc1

>  <standardized_failed>  (2386) 
False

$$$$

     RDKit          2D

  9  7  0  0  0  0  0  0  0  0999 V2000
    2.4375   -1.0167    0.0000 C   0  0  0  0  0  0  0  0  0  0  0  0
    2.4417   -0.1917    0.0000 O   0  0  0  0  0  0  0  0  0  0  0  0
    3.1542   -1.4292    0.0000 O   0  0  0  0  0  0  0  0  0  0  0  0
    0.9292   -1.7750    0.0000 Cl  0  0  0  0  0  0  0  0  0  0  0  0
   -1.1333   -1.4292    0.0000 N   0  0  0  0  0  0  0  0  0  0  0  0
    1.7167   -1.4292    0.0000 C   0  0  0  0  0  0  0  0  0  0  0  0
   -0.4208   -1.0167    0.0000 C   0  0  0  0  0  0  0  0  0  0  0  0
    1.0042   -1.0167    0.0000 C   0  0  0  0  0  0  0  0  0  0  0  0
    0.2917   -1.4292    0.0000 C   0  0  0  0  0  0  0  0  0  0  0  0
  2  1  2  0
  3  1  1  0
  5  7  1  0
  6  1  1  0
  7  9  1  0
  8  6  1  0
  9  8  1  0
M  END
>  <ID>  (2387) 


>  <MOLENAME>  (2387) 
5-AMINOPENTANOIC ACID HYDROCHLORIDE

>  <therap>  (2387) 
GABAb antagonist

>  <ref>  (2387) 
Biochem Pharmacol 30: 1105 (1981)

>  <cas#>  (2387) 
nan

>  <source>  (2387) 
synthetic

>  <status>  (2387) 
experimental

>  <tradename>  (2387) 
nan

>  <SMILES>  (2387) 
NCCCCC(=O)O

>  <standardized_failed>  (2387) 
False

$$$$

     RDKit          2D

 23 26  0  0  0  0  0  0  0  0999 V2000
    7.7750   -2.8625    0.0000 C   0  0  0  0  0  0  0  0  0  0  0  0
    7.7750   -3.6125    0.0000 C   0  0  0  0  0  0  0  0  0  0  0  0
    7.1250   -3.9875    0.0000 C   0  0  0  0  0  0  0  0  0  0  0  0
    6.4750   -3.6125    0.0000 C   0  0  0  0  0  0  0  0  0  0  0  0
    5.8250   -3.9875    0.0000 C   0  0  0  0  0  0  0  0  0  0  0  0
    5.8250   -4.7375    0.0000 C   0  0  0  0  0  0  0  0  0  0  0  0
    8.4875   -2.6375    0.0000 C   0  0  0  0  0  0  0  0  0  0  0  0
    7.1125   -2.5000    0.0000 C   0  0  0  0  0  0  0  0  0  0  0  0
    6.4750   -2.8625    0.0000 C   0  0  0  0  0  0  0  0  0  0  0  0
    8.4875   -3.8500    0.0000 C   0  0  0  0  0  0  0  0  0  0  0  0
    7.1250   -4.7375    0.0000 C   0  0  0  0  0  0  0  0  0  0  0  0
    5.1750   -3.6125    0.0000 C   0  0  0  0  0  0  0  0  0  0  0  0
    3.2250   -4.7500    0.0000 C   0  0  0  0  0  0  0  0  0  0  0  0
    5.1750   -5.1125    0.0000 C   0  0  0  0  0  0  0  0  0  0  0  0
    6.4750   -5.1125    0.0000 C   0  0  0  0  0  0  0  0  0  0  0  0
    8.9250   -3.2375    0.0000 C   0  0  0  0  0  0  0  0  0  0  0  0
    4.5250   -4.7375    0.0000 C   0  0  0  0  0  0  0  0  0  0  0  0
    3.8750   -5.1250    0.0000 O   0  0  0  0  0  0  0  0  0  0  0  0
    8.6500   -1.9125    0.0000 O   0  0  0  0  0  0  0  0  0  0  0  0
    2.5750   -5.1250    0.0000 O   0  0  0  0  0  0  0  0  0  0  0  0
    4.5250   -3.9875    0.0000 C   0  0  0  0  0  0  0  0  0  0  0  0
    7.7917   -2.1167    0.0000 C   0  0  0  0  0  0  0  0  0  0  0  0
    3.2167   -3.9917    0.0000 C   0  0  0  0  0  0  0  0  0  0  0  0
  2  1  1  0
  3  2  1  0
  4  9  1  0
  5  4  1  0
  6  5  2  0
  7  1  1  0
  8  1  1  0
  9  8  1  0
 10  2  1  0
 11  3  1  0
 12  5  1  0
 13 18  1  0
 14  6  1  0
 15 11  1  0
 16  7  1  0
 17 21  1  0
 18 17  1  0
 19  7  2  0
 20 13  2  0
 21 12  2  0
  1 22  1  1
 23 13  1  0
 10 16  1  0
  4  3  1  0
  6 15  1  0
 14 17  2  0
M  END
>  <ID>  (2388) 


>  <MOLENAME>  (2388) 
ESTRONE ACETATE

>  <therap>  (2388) 
estrogen

>  <ref>  (2388) 
Acta Anatomica 110:113 (1981)

>  <cas#>  (2388) 
901-93-9

>  <source>  (2388) 
semisynthetic

>  <status>  (2388) 
experimental

>  <tradename>  (2388) 
nan

>  <SMILES>  (2388) 
CC(=O)Oc1cc2c(cc1)C1CC[C@]3(C)C(=O)CCC3C1CC2

>  <standardized_failed>  (2388) 
False

$$$$

     RDKit          2D

 24 24  0  0  0  0  0  0  0  0999 V2000
    5.1917   -2.1292    0.0000 S   0  0  0  0  0  0  0  0  0  0  0  0
    6.0167   -2.1375    0.0000 C   0  0  0  0  0  0  0  0  0  0  0  0
    4.3667   -2.1292    0.0000 O   0  0  0  0  0  0  0  0  0  0  0  0
    4.7792   -2.8417    0.0000 O   0  0  0  0  0  0  0  0  0  0  0  0
    4.7792   -1.4167    0.0000 O   0  0  0  0  0  0  0  0  0  0  0  0
    2.6542   -2.6167    0.0000 N   0  0  0  0  0  0  0  0  0  0  0  0
    6.4292   -1.4292    0.0000 C   0  0  0  0  0  0  0  0  0  0  0  0
    6.4250   -2.8542    0.0000 C   0  0  0  0  0  0  0  0  0  0  0  0
    2.2417   -1.9042    0.0000 C   0  0  0  0  0  0  0  0  0  0  0  0
    1.4167   -1.9042    0.0000 C   0  0  0  0  0  0  0  0  0  0  0  0
   -0.2333   -1.9042    0.0000 C   0  0  0  0  0  0  0  0  0  0  0  0
    7.2542   -1.4292    0.0000 C   0  0  0  0  0  0  0  0  0  0  0  0
    7.2542   -2.8542    0.0000 C   0  0  0  0  0  0  0  0  0  0  0  0
    7.6625   -2.1417    0.0000 C   0  0  0  0  0  0  0  0  0  0  0  0
   -1.0583   -1.9042    0.0000 Br  0  0  0  0  0  0  0  0  0  0  0  0
    0.1792   -2.6167    0.0000 C   0  0  0  0  0  0  0  0  0  0  0  0
    0.1792   -1.1917    0.0000 C   0  0  0  0  0  0  0  0  0  0  0  0
    1.0042   -1.1917    0.0000 C   0  0  0  0  0  0  0  0  0  0  0  0
    1.0042   -2.6167    0.0000 C   0  0  0  0  0  0  0  0  0  0  0  0
    3.4792   -2.6167    0.0000 C   0  0  0  0  0  0  0  0  0  0  0  0
    1.8542   -2.8292    0.0000 C   0  0  0  0  0  0  0  0  0  0  0  0
    2.6500   -3.4417    0.0000 C   0  0  0  0  0  0  0  0  0  0  0  0
    8.4875   -2.1417    0.0000 C   0  0  0  0  0  0  0  0  0  0  0  0
    3.8917   -3.3375    0.0000 C   0  0  0  0  0  0  0  0  0  0  0  0
  2  1  1  0
  3  1  1  0
  4  1  2  0
  5  1  2  0
  7  2  2  0
  8  2  1  0
  9  6  1  0
 10  9  1  0
 11 16  1  0
 12  7  1  0
 13  8  2  0
 14 12  2  0
 15 11  1  0
 16 19  2  0
 17 18  1  0
 18 10  2  0
 19 10  1  0
 20  6  1  0
 21  6  1  0
 22  6  1  0
 23 14  1  0
 24 20  1  0
 13 14  1  0
 11 17  2  0
M  CHG  2   3  -1   6   1
M  END
>  <ID>  (2389) 


>  <MOLENAME>  (2389) 
BRETYLIUM TOSYLATE

>  <therap>  (2389) 
inhibitor of norepinephrine release

>  <ref>  (2389) 
Toxicol Appl Pharmacol 18:185 (1971); Ann Intern Med 91:229 (1979)

>  <cas#>  (2389) 
61-75-6

>  <source>  (2389) 
synthetic

>  <status>  (2389) 
USP, INN, BAN

>  <tradename>  (2389) 
BRETYLATE

>  <SMILES>  (2389) 
CC[N+](C)(C)Cc1ccc(Br)cc1

>  <standardized_failed>  (2389) 
False

$$$$

     RDKit          2D

 26 27  0  0  0  0  0  0  0  0999 V2000
    1.7542   -0.7250    0.0000 C   0  0  0  0  0  0  0  0  0  0  0  0
    3.8917    0.5208    0.0000 N   0  0  0  0  0  0  0  0  0  0  0  0
    3.1917    0.1000    0.0000 C   0  0  0  0  0  0  0  0  0  0  0  0
    3.1917   -0.7250    0.0000 C   0  0  0  0  0  0  0  0  0  0  0  0
    2.4667   -1.1375    0.0000 C   0  0  0  0  0  0  0  0  0  0  0  0
    4.6167    0.1125    0.0000 C   0  0  0  0  0  0  0  0  0  0  0  0
    2.4667    0.5125    0.0000 N   0  0  0  0  0  0  0  0  0  0  0  0
    1.7542    0.1000    0.0000 C   0  0  0  0  0  0  0  0  0  0  0  0
    4.6167   -0.7167    0.0000 N   0  0  0  0  0  0  0  0  0  0  0  0
    1.0417   -1.1375    0.0000 C   0  0  0  0  0  0  0  0  0  0  0  0
    5.3292    0.5250    0.0000 N   0  0  0  0  0  0  0  0  0  0  0  0
    3.9042   -1.1375    0.0000 C   0  0  0  0  0  0  0  0  0  0  0  0
    2.4792   -1.9625    0.0000 O   0  0  0  0  0  0  0  0  0  0  0  0
    6.7542    1.3583    0.0000 N   0  0  0  0  0  0  0  0  0  0  0  0
    1.0417   -1.9625    0.0000 O   0  0  0  0  0  0  0  0  0  0  0  0
    0.3292   -0.7250    0.0000 O   0  0  0  0  0  0  0  0  0  0  0  0
    2.4667    1.3375    0.0000 C   0  0  0  0  0  0  0  0  0  0  0  0
   -0.7500   -0.0667    0.0000 N   0  0  0  0  0  0  0  0  0  0  0  0
    6.0417    0.1125    0.0000 C   0  0  0  0  0  0  0  0  0  0  0  0
    5.3167    1.3500    0.0000 C   0  0  0  0  0  0  0  0  0  0  0  0
   -1.9000   -0.7292    0.0000 O   0  0  0  0  0  0  0  0  0  0  0  0
    6.7542    0.5333    0.0000 C   0  0  0  0  0  0  0  0  0  0  0  0
    6.0292    1.7625    0.0000 C   0  0  0  0  0  0  0  0  0  0  0  0
   -1.3208    0.2625    0.0000 C   0  0  0  0  0  0  0  0  0  0  0  0
   -1.8958   -0.0667    0.0000 C   0  0  0  0  0  0  0  0  0  0  0  0
    3.1792    1.7500    0.0000 C   0  0  0  0  0  0  0  0  0  0  0  0
  2  3  1  0
  3  4  2  0
  4  5  1  0
  5  1  1  0
  6  2  2  0
  7  8  1  0
  8  1  2  0
  9 12  2  0
 10  1  1  0
 11  6  1  0
 12  4  1  0
 13  5  2  0
 14 22  1  0
 15 10  2  0
 16 10  1  0
 17  7  1  0
 19 11  1  0
 20 11  1  0
 21 25  1  0
 22 19  1  0
 23 20  1  0
 24 18  1  0
 25 24  1  0
 26 17  1  0
  7  3  1  0
  6  9  1  0
 14 23  1  0
M  END
>  <ID>  (2390) 


>  <MOLENAME>  (2390) 
PIPEMIDIC ACID

>  <therap>  (2390) 
antibacterial

>  <ref>  (2390) 
Farmaco Ed Prat 30:252 (1974); Antimicrob Agents Chemother 7:441 (1975)

>  <cas#>  (2390) 
51940-44-4 (acid)

>  <source>  (2390) 
synthetic; 1489-RB; ethanolamine salt

>  <status>  (2390) 
INN, BAN, JAN

>  <tradename>  (2390) 
PIPEDAC

>  <SMILES>  (2390) 
CCn1cc(C(=O)O)c(=O)c2c1nc(N1CCNCC1)nc2

>  <standardized_failed>  (2390) 
False

$$$$

     RDKit          2D

 26 27  0  0  0  0  0  0  0  0999 V2000
    7.9500   -5.6417    0.0000 N   0  0  0  0  0  0  0  0  0  0  0  0
    7.1542   -5.8542    0.0000 C   0  0  0  0  0  0  0  0  0  0  0  0
    7.7375   -4.8417    0.0000 C   0  0  0  0  0  0  0  0  0  0  0  0
    6.9417   -5.0542    0.0000 C   0  0  0  0  0  0  0  0  0  0  0  0
    8.3917   -6.3292    0.0000 C   0  0  0  0  0  0  0  0  0  0  0  0
    7.1042   -6.6667    0.0000 S   0  0  0  0  0  0  0  0  0  0  0  0
    7.8667   -6.9667    0.0000 C   0  0  0  0  0  0  0  0  0  0  0  0
    6.2167   -4.6292    0.0000 N   0  0  0  0  0  0  0  0  0  0  0  0
    5.5000   -5.0417    0.0000 C   0  0  0  0  0  0  0  0  0  0  0  0
    9.2167   -6.3792    0.0000 C   0  0  0  0  0  0  0  0  0  0  0  0
    4.7875   -4.6292    0.0000 C   0  0  0  0  0  0  0  0  0  0  0  0
    8.1500   -4.1167    0.0000 O   0  0  0  0  0  0  0  0  0  0  0  0
    4.7917   -3.8042    0.0000 N   0  0  0  0  0  0  0  0  0  0  0  0
    5.4917   -5.8667    0.0000 O   0  0  0  0  0  0  0  0  0  0  0  0
    9.5917   -7.1167    0.0000 O   0  0  0  0  0  0  0  0  0  0  0  0
    9.6750   -5.6792    0.0000 O   0  0  0  0  0  0  0  0  0  0  0  0
    4.0750   -5.0417    0.0000 C   0  0  0  0  0  0  0  0  0  0  0  0
    8.5042   -7.4917    0.0000 C   0  0  0  0  0  0  0  0  0  0  0  0
    7.5292   -7.7167    0.0000 C   0  0  0  0  0  0  0  0  0  0  0  0
    5.5042   -3.3917    0.0000 C   0  0  0  0  0  0  0  0  0  0  0  0
   10.6917   -6.0875    0.0000 Na  0  0  0  0  0 15  0  0  0  0  0  0
    4.0750   -5.8667    0.0000 C   0  0  0  0  0  0  0  0  0  0  0  0
    3.3542   -4.6292    0.0000 C   0  0  0  0  0  0  0  0  0  0  0  0
    3.3542   -6.2792    0.0000 C   0  0  0  0  0  0  0  0  0  0  0  0
    2.6417   -5.0417    0.0000 C   0  0  0  0  0  0  0  0  0  0  0  0
    2.6417   -5.8667    0.0000 C   0  0  0  0  0  0  0  0  0  0  0  0
  2  1  1  0
  3  1  1  0
  4  3  1  0
  5  1  1  0
  6  2  1  0
  7  5  1  0
  8  4  1  0
  9  8  1  0
 10  5  1  0
 11  9  1  0
 12  3  2  0
 13 11  1  0
 14  9  2  0
 15 10  1  0
 16 10  2  0
 17 11  1  0
 18  7  1  0
 19  7  1  0
 20 13  2  0
 22 17  2  0
 23 17  1  0
 24 22  1  0
 25 23  2  0
 26 24  2  0
  7  6  1  0
  4  2  1  0
 25 26  1  0
M  CHG  2  15  -1  21   1
M  END
>  <ID>  (2391) 


>  <MOLENAME>  (2391) 
METAMPICILLIN SODIUM

>  <therap>  (2391) 
antibacterial

>  <ref>  (2391) 
Therapeutique (1973), 49(4), 269-77. ; Clin. Ter. (1973), 65(2), 165-74; Chemotherapy (1972), 17(3), 145-60. 

>  <cas#>  (2391) 
6489-97-0

>  <source>  (2391) 
semisynthetic

>  <status>  (2391) 
INN

>  <tradename>  (2391) 
nan

>  <SMILES>  (2391) 
C=NC(C(=O)NC1C(=O)N2C1SC(C)(C)C2C(=O)O)c1ccccc1

>  <standardized_failed>  (2391) 
False

$$$$

     RDKit          2D

 54 58  0  0  0  0  0  0  0  0999 V2000
    9.1667   -1.2542    0.0000 C   0  0  0  0  0  0  0  0  0  0  0  0
    9.8667   -2.4917    0.0000 C   0  0  0  0  0  0  0  0  0  0  0  0
    9.1667   -2.0792    0.0000 O   0  0  0  0  0  0  0  0  0  0  0  0
    8.4500   -1.6625    0.0000 O   0  0  0  0  0  0  0  0  0  0  0  0
    2.7417   -1.6292    0.0000 O   0  0  0  0  0  0  0  0  0  0  0  0
    2.0375   -1.2167    0.0000 C   0  0  0  0  0  0  0  0  0  0  0  0
    6.3042   -1.2375    0.0000 C   0  0  0  0  0  0  0  0  0  0  0  0
    7.7375   -1.2417    0.0000 C   0  0  0  0  0  0  0  0  0  0  0  0
    3.4542   -1.2167    0.0000 C   0  0  0  0  0  0  0  0  0  0  0  0
    9.2792   -3.0792    0.0000 O   0  0  0  0  0  0  0  0  0  0  0  0
    7.0167   -1.6500    0.0000 C   0  0  0  0  0  0  0  0  0  0  0  0
    1.3167   -1.6292    0.0000 C   0  0  0  0  0  0  0  0  0  0  0  0
    5.5917   -1.6417    0.0000 C   0  0  0  0  0  0  0  0  0  0  0  0
    4.1667   -1.6292    0.0000 C   0  0  0  0  0  0  0  0  0  0  0  0
    9.6542   -3.8167    0.0000 C   0  0  0  0  0  0  0  0  0  0  0  0
    4.8792   -1.2292    0.0000 C   0  0  0  0  0  0  0  0  0  0  0  0
    9.6417   -5.2375    0.0000 O   0  0  0  0  0  0  0  0  0  0  0  0
    9.8792   -0.8417    0.0000 C   0  0  0  0  0  0  0  0  0  0  0  0
    0.6042   -1.2167    0.0000 C   0  0  0  0  0  0  0  0  0  0  0  0
   10.0625   -4.5292    0.0000 C   0  0  0  0  0  0  0  0  0  0  0  0
    2.0375   -0.3917    0.0000 C   0  0  0  0  0  0  0  0  0  0  0  0
    3.4542   -0.3917    0.0000 C   0  0  0  0  0  0  0  0  0  0  0  0
    7.7417   -0.4125    0.0000 C   0  0  0  0  0  0  0  0  0  0  0  0
    9.1792   -0.4292    0.0000 C   0  0  0  0  0  0  0  0  0  0  0  0
   10.5917   -1.2625    0.0000 C   0  0  0  0  0  0  0  0  0  0  0  0
   10.8667   -5.9542    0.0000 C   0  0  0  0  0  0  0  0  0  0  0  0
   10.0417   -5.9417    0.0000 C   0  0  0  0  0  0  0  0  0  0  0  0
    2.7417    0.0208    0.0000 C   0  0  0  0  0  0  0  0  0  0  0  0
   10.5917   -2.0875    0.0000 C   0  0  0  0  0  0  0  0  0  0  0  0
    8.4667   -0.0042    0.0000 C   0  0  0  0  0  0  0  0  0  0  0  0
   10.6042   -2.8750    0.0000 C   0  0  0  0  0  0  0  0  0  0  0  0
    6.3167   -0.4042    0.0000 O   0  0  0  0  0  0  0  0  0  0  0  0
   10.4750   -3.6917    0.0000 C   0  0  0  0  0  0  0  0  0  0  0  0
    0.6042   -0.3917    0.0000 O   0  0  0  0  0  0  0  0  0  0  0  0
   11.2792   -5.2500    0.0000 C   0  0  0  0  0  0  0  0  0  0  0  0
   10.8792   -4.5292    0.0000 C   0  0  0  0  0  0  0  0  0  0  0  0
    4.8792   -0.4000    0.0000 O   0  0  0  0  0  0  0  0  0  0  0  0
   -0.1083   -1.6292    0.0000 O   0  0  0  0  0  0  0  0  0  0  0  0
   11.5792   -6.3667    0.0000 O   0  0  0  0  0  0  0  0  0  0  0  0
    1.3167   -2.4542    0.0000 C   0  0  0  0  0  0  0  0  0  0  0  0
   11.3875   -2.3000    0.0000 O   0  0  0  0  0  0  0  0  0  0  0  0
    7.0167   -2.4750    0.0000 C   0  0  0  0  0  0  0  0  0  0  0  0
    5.5875   -2.4667    0.0000 C   0  0  0  0  0  0  0  0  0  0  0  0
    4.1625   -2.4542    0.0000 C   0  0  0  0  0  0  0  0  0  0  0  0
    8.9375   -4.2292    0.0000 C   0  0  0  0  0  0  0  0  0  0  0  0
   10.6417   -6.7542    0.0000 C   0  0  0  0  0  0  0  0  0  0  0  0
    1.3167    0.0208    0.0000 C   0  0  0  0  0  0  0  0  0  0  0  0
    4.1667    0.0208    0.0000 C   0  0  0  0  0  0  0  0  0  0  0  0
    7.0292    0.0083    0.0000 C   0  0  0  0  0  0  0  0  0  0  0  0
    9.7625    0.1583    0.0000 C   0  0  0  0  0  0  0  0  0  0  0  0
    9.6292   -6.6542    0.0000 C   0  0  0  0  0  0  0  0  0  0  0  0
    0.6042   -2.8667    0.0000 C   0  0  0  0  0  0  0  0  0  0  0  0
    7.7250   -2.8917    0.0000 C   0  0  0  0  0  0  0  0  0  0  0  0
   11.2292   -7.3375    0.0000 C   0  0  0  0  0  0  0  0  0  0  0  0
  2  3  1  0
  1  3  1  6
  4  1  1  0
  9  5  1  6
  6  5  1  1
  7 11  1  0
  8  4  1  6
  9 14  1  0
  2 10  1  0
 11  8  1  0
  6 12  1  0
 13  7  1  0
 14 16  1  0
 15 10  1  0
 16 13  1  0
 17 20  1  0
  1 18  1  0
 19 12  1  0
 15 20  1  0
 21 28  1  0
 22  9  1  0
 23 30  1  0
 24  1  1  0
 25 18  2  0
 26 35  1  0
 27 17  1  0
 28 22  1  0
 29 25  1  0
 30 24  1  0
  2 31  1  6
 32  7  2  0
 33 31  1  0
 34 19  2  0
 35 36  1  0
 36 20  1  0
 16 37  1  6
 38 19  1  0
 26 39  1  1
 12 40  1  1
 29 41  1  1
 11 42  1  1
 13 43  1  1
 14 44  1  6
 15 45  1  6
 26 46  1  0
 21 47  1  6
 22 48  1  6
 23 49  1  1
 24 50  1  1
 27 51  1  6
 52 40  1  0
 53 42  1  0
 54 46  1  0
 23  8  1  0
  2 29  1  0
 15 33  1  0
 27 26  1  0
 21  6  1  0
M  END
>  <ID>  (2392) 


>  <MOLENAME>  (2392) 
NARASIN

>  <therap>  (2392) 
antibacterial, antiviral

>  <ref>  (2392) 
Dev. Ind. Microbiol. Ser. (1977), 18, 471-85; J. Antibiot. (1978), 31(1), 1-6; Clin. Microbiol. Rev. (2003), 16(2), 175-188

>  <cas#>  (2392) 
55134-13-9

>  <source>  (2392) 
Streptomyces aereofaciens, and other Streptomyces spp

>  <status>  (2392) 
USP, INN, BAN

>  <tradename>  (2392) 
nan

>  <SMILES>  (2392) 
CC[C@@H](C(=O)[C@@H](C)[C@@H](O)[C@H](C)[C@@H]1O[C@@H]([C@@H](CC)C(=O)O)[C@H](C)C[C@@H]1C)[C@H]1O[C@]2(C=C[C@@H](O)[C@]3(CC[C@@](C)(C4CC[C@](O)(CC)[C@H](C)O4)O3)O2)[C@H](C)C[C@@H]1C

>  <standardized_failed>  (2392) 
False

$$$$

     RDKit          2D

 29 30  0  0  0  0  0  0  0  0999 V2000
    5.6875   -0.7417    0.0000 C   0  0  0  0  0  0  0  0  0  0  0  0
    4.2375   -0.7417    0.0000 C   0  0  0  0  0  0  0  0  0  0  0  0
    4.9625    0.5125    0.0000 N   0  0  0  0  0  0  0  0  0  0  0  0
    4.2500    0.0875    0.0000 C   0  0  0  0  0  0  0  0  0  0  0  0
    4.9625   -1.1542    0.0000 C   0  0  0  0  0  0  0  0  0  0  0  0
    3.5250    0.5000    0.0000 C   0  0  0  0  0  0  0  0  0  0  0  0
    5.6875    0.0875    0.0000 C   0  0  0  0  0  0  0  0  0  0  0  0
    2.8125    0.0875    0.0000 C   0  0  0  0  0  0  0  0  0  0  0  0
    2.1000    0.5083    0.0000 N   0  0  0  0  0  0  0  0  0  0  0  0
    2.8125   -0.7375    0.0000 C   0  0  0  0  0  0  0  0  0  0  0  0
    3.5250   -1.1500    0.0000 C   0  0  0  0  0  0  0  0  0  0  0  0
    6.4000   -1.1625    0.0000 C   0  0  0  0  0  0  0  0  0  0  0  0
    1.3875    0.0875    0.0000 C   0  0  0  0  0  0  0  0  0  0  0  0
    4.9500   -1.9792    0.0000 O   0  0  0  0  0  0  0  0  0  0  0  0
    0.6750    1.3333    0.0000 N   0  0  0  0  0  0  0  0  0  0  0  0
    7.1125   -0.7500    0.0000 O   0  0  0  0  0  0  0  0  0  0  0  0
    3.5250    1.3250    0.0000 F   0  0  0  0  0  0  0  0  0  0  0  0
    2.1000   -1.1500    0.0000 F   0  0  0  0  0  0  0  0  0  0  0  0
    2.1000    1.3333    0.0000 C   0  0  0  0  0  0  0  0  0  0  0  0
    4.9625    1.3375    0.0000 C   0  0  0  0  0  0  0  0  0  0  0  0
    0.6750    0.5083    0.0000 C   0  0  0  0  0  0  0  0  0  0  0  0
    6.4000   -1.9875    0.0000 O   0  0  0  0  0  0  0  0  0  0  0  0
    1.4000    1.7458    0.0000 C   0  0  0  0  0  0  0  0  0  0  0  0
    8.8000   -1.6625    0.0000 N   0  0  0  0  0  0  0  0  0  0  0  0
    7.6500   -2.3167    0.0000 O   0  0  0  0  0  0  0  0  0  0  0  0
    8.2292   -1.3292    0.0000 C   0  0  0  0  0  0  0  0  0  0  0  0
    7.6542   -1.6542    0.0000 C   0  0  0  0  0  0  0  0  0  0  0  0
   -0.0375    0.1000    0.0000 C   0  0  0  0  0  0  0  0  0  0  0  0
    5.6750    1.7500    0.0000 C   0  0  0  0  0  0  0  0  0  0  0  0
  2  5  1  0
  3  7  1  0
  4  2  2  0
  5  1  1  0
  6  4  1  0
  7  1  2  0
  8  6  2  0
  9  8  1  0
 10 11  2  0
 11  2  1  0
 12  1  1  0
 13  9  1  0
 14  5  2  0
 15 23  1  0
 16 12  2  0
 17  6  1  0
 18 10  1  0
 19  9  1  0
 20  3  1  0
 21 13  1  0
 22 12  1  0
 23 19  1  0
 25 27  1  0
 26 24  1  0
 27 26  1  0
 28 21  1  0
 29 20  1  0
  3  4  1  0
 10  8  1  0
 21 15  1  0
M  END
>  <ID>  (2393) 


>  <MOLENAME>  (2393) 
LOMEFLOXACIN

>  <therap>  (2393) 
antibacterial

>  <ref>  (2393) 
Drugs (1991), 42(6), 1018-60; Antimicrob. Agents Chemother. (1988), 32(5), 656-62; Antimicrob. Agents Chemother. (1987), 31(6), 854-9

>  <cas#>  (2393) 
98079-51-7 (acid)

>  <source>  (2393) 
synthetic; NY-198, SC-47111A; ethanolamine salt

>  <status>  (2393) 
USAN, JAN

>  <tradename>  (2393) 
MAXAQUIN

>  <SMILES>  (2393) 
CCn1cc(C(=O)O)c(=O)c2c1c(F)c(N1CCNC(C)C1)c(F)c2

>  <standardized_failed>  (2393) 
False

$$$$

     RDKit          2D

 25 26  0  0  0  0  0  0  0  0999 V2000
    1.8417   -2.6125    0.0000 C   0  0  0  0  0  0  0  0  0  0  0  0
    3.9792   -1.3750    0.0000 N   0  0  0  0  0  0  0  0  0  0  0  0
    3.2667   -1.7875    0.0000 C   0  0  0  0  0  0  0  0  0  0  0  0
    3.2667   -2.6125    0.0000 C   0  0  0  0  0  0  0  0  0  0  0  0
    2.5542   -3.0250    0.0000 C   0  0  0  0  0  0  0  0  0  0  0  0
    4.6917   -1.7917    0.0000 C   0  0  0  0  0  0  0  0  0  0  0  0
    2.5542   -1.3750    0.0000 N   0  0  0  0  0  0  0  0  0  0  0  0
    1.8417   -1.7875    0.0000 C   0  0  0  0  0  0  0  0  0  0  0  0
    4.6917   -2.6167    0.0000 N   0  0  0  0  0  0  0  0  0  0  0  0
    1.1292   -3.0250    0.0000 C   0  0  0  0  0  0  0  0  0  0  0  0
    5.4042   -1.3875    0.0000 N   0  0  0  0  0  0  0  0  0  0  0  0
    3.9792   -3.0250    0.0000 C   0  0  0  0  0  0  0  0  0  0  0  0
    2.5542   -3.8500    0.0000 O   0  0  0  0  0  0  0  0  0  0  0  0
    0.4167   -2.6125    0.0000 O   0  0  0  0  0  0  0  0  0  0  0  0
    1.1292   -3.8500    0.0000 O   0  0  0  0  0  0  0  0  0  0  0  0
    2.5542   -0.5500    0.0000 C   0  0  0  0  0  0  0  0  0  0  0  0
    0.1875   -3.7542    0.0000 N   0  0  0  0  0  0  0  0  0  0  0  0
    6.1542   -1.7250    0.0000 C   0  0  0  0  0  0  0  0  0  0  0  0
    5.4917   -0.5625    0.0000 C   0  0  0  0  0  0  0  0  0  0  0  0
   -0.9625   -4.4125    0.0000 O   0  0  0  0  0  0  0  0  0  0  0  0
   -0.3833   -3.4167    0.0000 C   0  0  0  0  0  0  0  0  0  0  0  0
   -0.9583   -3.7500    0.0000 C   0  0  0  0  0  0  0  0  0  0  0  0
    3.2667   -0.1375    0.0000 C   0  0  0  0  0  0  0  0  0  0  0  0
    6.3042   -0.4000    0.0000 C   0  0  0  0  0  0  0  0  0  0  0  0
    6.7167   -1.1125    0.0000 C   0  0  0  0  0  0  0  0  0  0  0  0
  2  3  1  0
  3  4  2  0
  4  5  1  0
  5  1  1  0
  6  2  2  0
  7  8  1  0
  8  1  2  0
  9 12  2  0
 10  1  1  0
 11  6  1  0
 12  4  1  0
 13  5  2  0
 14 10  2  0
 15 10  1  0
 16  7  1  0
 18 11  1  0
 19 11  1  0
 20 22  1  0
 21 17  1  0
 22 21  1  0
 23 16  1  0
 24 19  1  0
 25 18  1  0
  7  3  1  0
  6  9  1  0
 24 25  1  0
M  END
>  <ID>  (2394) 


>  <MOLENAME>  (2394) 
PIROMIDIC ACID

>  <therap>  (2394) 
antibacterial

>  <ref>  (2394) 
Antimicrob Agents Chemother 1970:117, 123 

>  <cas#>  (2394) 
19562-30-2

>  <source>  (2394) 
synthetic; PD-93; 10% aqueous DMSO; ethanolamine salt

>  <status>  (2394) 
INN, JAN

>  <tradename>  (2394) 
BACTRAMYL

>  <SMILES>  (2394) 
CCn1cc(C(=O)O)c(=O)c2c1nc(N1CCCC1)nc2

>  <standardized_failed>  (2394) 
False

$$$$

     RDKit          2D

 10  9  0  0  0  0  0  0  0  0999 V2000
    4.8167   -1.9917    0.0000 N   0  0  0  0  0  0  0  0  0  0  0  0
    5.6417   -1.9917    0.0000 C   0  0  0  0  0  0  0  0  0  0  0  0
    6.1250   -1.3250    0.0000 C   0  0  0  0  0  0  0  0  0  0  0  0
    6.9500   -1.4125    0.0000 C   0  0  0  0  0  0  0  0  0  0  0  0
    5.2292   -3.2625    0.0000 N   0  0  0  0  0  0  0  0  0  0  0  0
    4.5625   -2.7792    0.0000 C   0  0  0  0  0  0  0  0  0  0  0  0
    5.9000   -2.7792    0.0000 C   0  0  0  0  0  0  0  0  0  0  0  0
    7.2792   -2.1625    0.0000 O   0  0  0  0  0  0  0  0  0  0  0  0
    7.4292   -0.7417    0.0000 O   0  0  0  0  0  0  0  0  0  0  0  0
    8.9500   -2.2167    0.0000 Na  0  0  0  0  0 15  0  0  0  0  0  0
  2  1  1  0
  3  2  1  0
  4  3  1  0
  5  6  1  0
  6  1  2  0
  7  2  2  0
  8  4  1  0
  9  4  2  0
  7  5  1  0
M  CHG  2   8  -1  10   1
M  END
>  <ID>  (2395) 


>  <MOLENAME>  (2395) 
IMIDAZOL-4-YLACETIC ACID SODIUM SALT

>  <therap>  (2395) 
GABAc antagonist

>  <ref>  (2395) 
Brit J Pharmacol 109: 200 (1993); Gen Pharmacol 31:503 (1998)

>  <cas#>  (2395) 
56368-58-2

>  <source>  (2395) 
synthetic

>  <status>  (2395) 
experimental

>  <tradename>  (2395) 
nan

>  <SMILES>  (2395) 
O=C(O)Cc1c[nH]cn1

>  <standardized_failed>  (2395) 
False

$$$$

     RDKit          2D

 12 13  0  0  0  0  0  0  0  0999 V2000
    3.2875   -2.4292    0.0000 C   0  0  0  0  0  0  0  0  0  0  0  0
    2.8042   -3.1042    0.0000 N   0  0  0  0  0  0  0  0  0  0  0  0
    2.7917   -1.7667    0.0000 C   0  0  0  0  0  0  0  0  0  0  0  0
    4.1125   -2.4292    0.0000 C   0  0  0  0  0  0  0  0  0  0  0  0
    2.0167   -2.8542    0.0000 C   0  0  0  0  0  0  0  0  0  0  0  0
    2.0042   -2.0292    0.0000 C   0  0  0  0  0  0  0  0  0  0  0  0
    4.5167   -1.7125    0.0000 O   0  0  0  0  0  0  0  0  0  0  0  0
    4.5292   -3.1417    0.0000 O   0  0  0  0  0  0  0  0  0  0  0  0
    1.2917   -3.2667    0.0000 C   0  0  0  0  0  0  0  0  0  0  0  0
    1.2917   -1.6167    0.0000 C   0  0  0  0  0  0  0  0  0  0  0  0
    0.5792   -2.0292    0.0000 C   0  0  0  0  0  0  0  0  0  0  0  0
    0.5792   -2.8542    0.0000 C   0  0  0  0  0  0  0  0  0  0  0  0
  2  1  1  0
  3  1  2  0
  4  1  1  0
  5  2  1  0
  6  3  1  0
  7  4  2  0
  8  4  1  0
  9  5  2  0
 10  6  2  0
 11 10  1  0
 12  9  1  0
  5  6  1  0
 12 11  2  0
M  END
>  <ID>  (2396) 


>  <MOLENAME>  (2396) 
INDOLE-2-CARBOXYLIC ACID

>  <therap>  (2396) 
NMDA receptor antagonist (gly)

>  <ref>  (2396) 
Science 243:1611 (1989)

>  <cas#>  (2396) 
1477-50-5

>  <source>  (2396) 
synthetic

>  <status>  (2396) 
experimental

>  <tradename>  (2396) 
nan

>  <SMILES>  (2396) 
O=C(O)c1cc2ccccc2[nH]1

>  <standardized_failed>  (2396) 
False

$$$$

     RDKit          2D

 10 10  0  0  0  0  0  0  0  0999 V2000
    4.5042   -2.0167    0.0000 C   0  0  0  0  0  0  0  0  0  0  0  0
    4.2500   -2.8042    0.0000 N   0  0  0  0  0  0  0  0  0  0  0  0
    3.8375   -1.5375    0.0000 N   0  0  0  0  0  0  0  0  0  0  0  0
    4.7375   -3.4750    0.0000 C   0  0  0  0  0  0  0  0  0  0  0  0
    5.2917   -1.7667    0.0000 N   0  0  0  0  0  0  0  0  0  0  0  0
    4.4000   -4.2292    0.0000 C   0  0  0  0  0  0  0  0  0  0  0  0
    3.5792   -4.3125    0.0000 O   0  0  0  0  0  0  0  0  0  0  0  0
    3.4250   -2.8042    0.0000 C   0  0  0  0  0  0  0  0  0  0  0  0
    3.1750   -2.0167    0.0000 C   0  0  0  0  0  0  0  0  0  0  0  0
    4.8792   -4.8917    0.0000 O   0  0  0  0  0  0  0  0  0  0  0  0
  2  1  1  0
  3  1  1  0
  4  2  1  0
  5  1  2  0
  6  4  1  0
  7  6  2  0
  8  2  1  0
  9  3  1  0
 10  6  1  0
  8  9  1  0
M  END
>  <ID>  (2397) 


>  <MOLENAME>  (2397) 
CYCLOCREATINE

>  <therap>  (2397) 
cognitive enhancer, regulates creatine biosynthesis

>  <ref>  (2397) 
J Neurochem 34:1247 (1980); J Neurosci18:156 (1998); J Clin Invest 122:2837 (2012)

>  <cas#>  (2397) 
35404-50-3

>  <source>  (2397) 
heart & muscle tissue

>  <status>  (2397) 
experimental

>  <tradename>  (2397) 
nan

>  <SMILES>  (2397) 
N=C1NCCN1CC(=O)O

>  <standardized_failed>  (2397) 
False

$$$$

     RDKit          2D

 13 14  0  0  0  0  0  0  0  0999 V2000
    6.4542   -3.5667    0.0000 C   0  0  0  0  0  0  0  0  0  0  0  0
    5.9667   -4.2375    0.0000 N   0  0  0  0  0  0  0  0  0  0  0  0
    5.9625   -2.9000    0.0000 C   0  0  0  0  0  0  0  0  0  0  0  0
    5.1792   -3.1625    0.0000 C   0  0  0  0  0  0  0  0  0  0  0  0
    5.1792   -3.9875    0.0000 C   0  0  0  0  0  0  0  0  0  0  0  0
    7.2792   -3.5625    0.0000 C   0  0  0  0  0  0  0  0  0  0  0  0
    4.4625   -2.7500    0.0000 C   0  0  0  0  0  0  0  0  0  0  0  0
    7.6875   -2.8417    0.0000 O   0  0  0  0  0  0  0  0  0  0  0  0
    4.4625   -4.4042    0.0000 C   0  0  0  0  0  0  0  0  0  0  0  0
    3.7500   -3.1625    0.0000 C   0  0  0  0  0  0  0  0  0  0  0  0
    7.6917   -4.2750    0.0000 O   0  0  0  0  0  0  0  0  0  0  0  0
    3.7500   -3.9917    0.0000 C   0  0  0  0  0  0  0  0  0  0  0  0
    3.0375   -2.7542    0.0000 F   0  0  0  0  0  0  0  0  0  0  0  0
  2  1  1  0
  3  1  2  0
  4  3  1  0
  5  2  1  0
  6  1  1  0
  7  4  2  0
  8  6  2  0
  9  5  2  0
 10  7  1  0
 11  6  1  0
 12  9  1  0
 13 10  1  0
  5  4  1  0
 12 10  2  0
M  END
>  <ID>  (2398) 


>  <MOLENAME>  (2398) 
5-FLUOROINDOLE-2-CARBOXYLIC ACID

>  <therap>  (2398) 
NMDA receptor antagonist, anticonvulsant

>  <ref>  (2398) 
Mol Pharmacol 37:477 (1990); J Neural Transm 105:133 (1998)

>  <cas#>  (2398) 
399-76-8

>  <source>  (2398) 
synthetic

>  <status>  (2398) 
experimental

>  <tradename>  (2398) 
nan

>  <SMILES>  (2398) 
O=C(O)c1cc2cc(F)ccc2[nH]1

>  <standardized_failed>  (2398) 
False

$$$$

     RDKit          2D

 11 10  0  0  0  0  0  0  0  0999 V2000
    4.6292   -0.1417    0.0000 C   0  0  0  0  0  0  0  0  0  0  0  0
    1.7792   -0.1417    0.0000 C   0  0  0  0  0  0  0  0  0  0  0  0
    2.4917   -0.5542    0.0000 C   0  0  0  0  0  0  0  0  0  0  0  0
    4.6250    0.6833    0.0000 O   0  0  0  0  0  0  0  0  0  0  0  0
    1.0667   -0.5542    0.0000 C   0  0  0  0  0  0  0  0  0  0  0  0
    2.4917   -1.3792    0.0000 O   0  0  0  0  0  0  0  0  0  0  0  0
    1.0667   -1.3792    0.0000 O   0  0  0  0  0  0  0  0  0  0  0  0
    3.9167   -0.5542    0.0000 C   0  0  0  0  0  0  0  0  0  0  0  0
    5.3417   -0.5417    0.0000 O   0  0  0  0  0  0  0  0  0  0  0  0
    3.2042   -0.1417    0.0000 C   0  0  0  0  0  0  0  0  0  0  0  0
    0.3542   -0.1542    0.0000 C   0  0  0  0  0  0  0  0  0  0  0  0
  2  3  1  0
  3 10  1  0
  4  1  2  0
  5  2  1  0
  6  3  2  0
  7  5  2  0
  8  1  1  0
  9  1  1  0
 10  8  1  0
 11  5  1  0
M  END
>  <ID>  (2399) 


>  <MOLENAME>  (2399) 
SUCCINYLACETONE

>  <therap>  (2399) 
inhibitor of heme biosynthesis

>  <ref>  (2399) 
Biochem Biophys Res Commun 88: 1382 (1979)

>  <cas#>  (2399) 
51568-18-4

>  <source>  (2399) 
synthetic

>  <status>  (2399) 
experimental

>  <tradename>  (2399) 
nan

>  <SMILES>  (2399) 
CC(=O)CC(=O)CCC(=O)O

>  <standardized_failed>  (2399) 
False

$$$$

     RDKit          2D

 12 11  0  0  0  0  0  0  0  0999 V2000
    1.1500   -1.5125    0.0000 N   0  0  0  0  0  0  0  0  0  0  0  0
    0.1792   -1.0250    0.0000 N   0  0  0  0  0  0  0  0  0  0  0  0
    5.4250   -1.5000    0.0000 C   0  0  0  0  0  0  0  0  0  0  0  0
    1.8625   -1.9167    0.0000 C   0  0  0  0  0  0  0  0  0  0  0  0
    4.7125   -1.9125    0.0000 C   0  0  0  0  0  0  0  0  0  0  0  0
    2.5750   -1.5042    0.0000 C   0  0  0  0  0  0  0  0  0  0  0  0
    4.0000   -1.5042    0.0000 C   0  0  0  0  0  0  0  0  0  0  0  0
    5.4167   -0.6750    0.0000 O   0  0  0  0  0  0  0  0  0  0  0  0
    3.2875   -1.9167    0.0000 O   0  0  0  0  0  0  0  0  0  0  0  0
    2.5667   -0.6792    0.0000 O   0  0  0  0  0  0  0  0  0  0  0  0
    4.7125   -2.7375    0.0000 N   0  0  0  0  0  0  0  0  0  0  0  0
    6.1375   -1.9042    0.0000 O   0  0  0  0  0  0  0  0  0  0  0  0
  2  1  2  0
  3  5  1  0
  4  1  2  0
  5  7  1  0
  6  4  1  0
  7  9  1  0
  8  3  2  0
  9  6  1  0
 10  6  2  0
 11  5  1  0
 12  3  1  0
M  CHG  2   1   1   2  -1
M  END
>  <ID>  (2400) 


>  <MOLENAME>  (2400) 
AZASERINE

>  <therap>  (2400) 
antineoplastic, amino acid antagonist

>  <ref>  (2400) 
Nature 173:71, 72 (1954); Cancer 10:889 (0157); Histochem Cell Biol 119:405 (2003)

>  <cas#>  (2400) 
115-02-6

>  <source>  (2400) 
Streptomyces fragilis; CL-337, CN-15757

>  <status>  (2400) 
USAN, INN

>  <tradename>  (2400) 
nan

>  <SMILES>  (2400) 
[N-]=[N+]=CC(=O)OCC(N)C(=O)O

>  <standardized_failed>  (2400) 
False

$$$$

     RDKit          2D

 13 13  0  0  0  0  0  0  0  0999 V2000
    5.9417   -5.8042    0.0000 C   0  0  0  0  0  0  0  0  0  0  0  0
    5.1167   -5.8042    0.0000 C   0  0  0  0  0  0  0  0  0  0  0  0
    6.3542   -5.0917    0.0000 O   0  0  0  0  0  0  0  0  0  0  0  0
    4.7042   -5.0917    0.0000 C   0  0  0  0  0  0  0  0  0  0  0  0
    3.8792   -5.0917    0.0000 C   0  0  0  0  0  0  0  0  0  0  0  0
    4.7042   -6.5167    0.0000 N   0  0  0  0  0  0  0  0  0  0  0  0
    6.3542   -6.5250    0.0000 O   0  0  0  0  0  0  0  0  0  0  0  0
    2.2375   -5.0917    0.0000 C   0  0  0  0  0  0  0  0  0  0  0  0
    1.4125   -5.0917    0.0000 F   0  0  0  0  0  0  0  0  0  0  0  0
    3.4667   -5.8042    0.0000 C   0  0  0  0  0  0  0  0  0  0  0  0
    3.4667   -4.3792    0.0000 C   0  0  0  0  0  0  0  0  0  0  0  0
    2.6417   -5.8042    0.0000 C   0  0  0  0  0  0  0  0  0  0  0  0
    2.6417   -4.3792    0.0000 C   0  0  0  0  0  0  0  0  0  0  0  0
  2  1  1  0
  3  1  2  0
  4  2  1  0
  5  4  1  0
  6  2  1  0
  7  1  1  0
  8 13  1  0
  9  8  1  0
 10  5  2  0
 11  5  1  0
 12 10  1  0
 13 11  2  0
  8 12  2  0
M  END
>  <ID>  (2401) 


>  <MOLENAME>  (2401) 
p-FLUOROPHENYLALANINE

>  <therap>  (2401) 
amino acid antagonist, protein synthesis inhibitor

>  <ref>  (2401) 
J Biol Chem 269: 24637 ((1994); Biochemistry 35: 6969 (1996); Eur J Cell Biol 23: 312 (1981)

>  <cas#>  (2401) 
51-65-0

>  <source>  (2401) 
synthetic

>  <status>  (2401) 
experimental

>  <tradename>  (2401) 
nan

>  <SMILES>  (2401) 
NC(Cc1ccc(F)cc1)C(=O)O

>  <standardized_failed>  (2401) 
False

$$$$

     RDKit          2D

  7  7  0  0  0  0  0  0  0  0999 V2000
    5.3417   -3.7250    0.0000 C   0  0  0  0  0  0  0  0  0  0  0  0
    5.8792   -4.2542    0.0000 C   0  0  0  0  0  0  0  0  0  0  0  0
    4.7000   -3.3500    0.0000 C   0  0  0  0  0  0  0  0  0  0  0  0
    4.7000   -4.1000    0.0000 C   0  0  0  0  0  0  0  0  0  0  0  0
    6.6000   -4.0542    0.0000 O   0  0  0  0  0  0  0  0  0  0  0  0
    6.0542   -3.5292    0.0000 N   0  0  0  0  0  0  0  0  0  0  0  0
    5.6917   -4.9667    0.0000 O   0  0  0  0  0  0  0  0  0  0  0  0
  1  2  1  0
  3  1  1  0
  4  1  1  0
  5  2  2  0
  1  6  1  0
  7  2  1  0
  3  4  1  0
M  END
>  <ID>  (2402) 


>  <MOLENAME>  (2402) 
AMINOCYCLOPROPANECARBOXYLIC ACID

>  <therap>  (2402) 
NMDA partial agonist (gly)

>  <ref>  (2402) 
J Pharm Sci 84:1231(1995); Br J Pharmacol 118:901 (1996)

>  <cas#>  (2402) 
68781-13-5

>  <source>  (2402) 
synthetic; ACPC

>  <status>  (2402) 
experimental

>  <tradename>  (2402) 
nan

>  <SMILES>  (2402) 
NC1(C(=O)O)CC1

>  <standardized_failed>  (2402) 
False

$$$$

     RDKit          2D

 14 13  0  0  0  0  0  0  0  0999 V2000
    3.9917   -1.0625    0.0000 C   0  0  0  0  0  0  0  0  0  0  0  0
    4.6417   -1.4417    0.0000 C   0  0  0  0  0  0  0  0  0  0  0  0
    3.9917   -0.3125    0.0000 O   0  0  0  0  0  0  0  0  0  0  0  0
    4.6417   -2.1875    0.0000 C   0  0  0  0  0  0  0  0  0  0  0  0
    3.9917   -2.5667    0.0000 C   0  0  0  0  0  0  0  0  0  0  0  0
    5.2917   -1.0625    0.0000 N   0  0  0  0  0  0  0  0  0  0  0  0
    3.3542   -1.4375    0.0000 O   0  0  0  0  0  0  0  0  0  0  0  0
    2.6917   -3.3167    0.0000 C   0  0  0  0  0  0  0  0  0  0  0  0
    2.0417   -3.7000    0.0000 Cl  0  0  0  0  0  0  0  0  0  0  0  0
    6.3917   -1.6167    0.0000 Cl  0  0  0  0  0  0  0  0  0  0  0  0
    3.3417   -2.1917    0.0000 C   0  0  0  0  0  0  0  0  0  0  0  0
    3.9917   -3.3167    0.0000 C   0  0  0  0  0  0  0  0  0  0  0  0
    3.3417   -3.6917    0.0000 C   0  0  0  0  0  0  0  0  0  0  0  0
    2.6917   -2.5667    0.0000 C   0  0  0  0  0  0  0  0  0  0  0  0
  2  1  1  0
  3  1  2  0
  4  2  1  0
  5  4  1  0
  6  2  1  0
  7  1  1  0
  8 14  2  0
  9  8  1  0
 11  5  2  0
 12  5  1  0
 13 12  2  0
 14 11  1  0
 13  8  1  0
M  END
>  <ID>  (2403) 


>  <MOLENAME>  (2403) 
FENCLONINE (+/-)

>  <therap>  (2403) 
serotonin inhibitor; tryptophan hydroxylase inhibitor

>  <ref>  (2403) 
Mol Pharmacol 3:274 (1967); Ann Intern Med 72:919 (1970); 73:607 (1970)

>  <cas#>  (2403) 
7424-00-2(dl); 14173-39-8(l)

>  <source>  (2403) 
synthetic; CP-10188, NSC-77370; 10% aqueous DMSO

>  <status>  (2403) 
USAN, INN

>  <tradename>  (2403) 
nan

>  <SMILES>  (2403) 
NC(Cc1ccc(Cl)cc1)C(=O)O

>  <standardized_failed>  (2403) 
False

$$$$

     RDKit          2D

 24 24  0  0  0  0  0  0  0  0999 V2000
    5.2792   -2.8625    0.0000 C   0  0  0  0  0  0  0  0  0  0  0  0
    5.6917   -2.1417    0.0000 N   0  0  0  0  0  0  0  0  0  0  0  0
    4.4542   -2.8625    0.0000 C   0  0  0  0  0  0  0  0  0  0  0  0
    6.5167   -2.1417    0.0000 C   0  0  0  0  0  0  0  0  0  0  0  0
    6.7917   -1.3625    0.0000 C   0  0  0  0  0  0  0  0  0  0  0  0
    4.0417   -2.1500    0.0000 N   0  0  0  0  0  0  0  0  0  0  0  0
    3.6292   -1.4292    0.0000 C   0  0  0  0  0  0  0  0  0  0  0  0
    5.6917   -3.5625    0.0000 O   0  0  0  0  0  0  0  0  0  0  0  0
    7.0542   -2.7792    0.0000 C   0  0  0  0  0  0  0  0  0  0  0  0
    7.5542   -1.3500    0.0000 O   0  0  0  0  0  0  0  0  0  0  0  0
    4.0417   -3.5750    0.0000 C   0  0  0  0  0  0  0  0  0  0  0  0
    2.8167   -1.3625    0.0000 O   0  0  0  0  0  0  0  0  0  0  0  0
    6.3167   -0.6875    0.0000 O   0  0  0  0  0  0  0  0  0  0  0  0
    7.8792   -2.7792    0.0000 C   0  0  0  0  0  0  0  0  0  0  0  0
    3.4042   -0.0333    0.0000 N   0  0  0  0  0  0  0  0  0  0  0  0
    3.9667   -0.7000    0.0000 C   0  0  0  0  0  0  0  0  0  0  0  0
    3.2167   -3.5750    0.0000 C   0  0  0  0  0  0  0  0  0  0  0  0
    8.2917   -3.5000    0.0000 C   0  0  0  0  0  0  0  0  0  0  0  0
    8.2917   -2.0708    0.0000 C   0  0  0  0  0  0  0  0  0  0  0  0
    2.7292   -4.2375    0.0000 C   0  0  0  0  0  0  0  0  0  0  0  0
    2.7292   -2.9042    0.0000 C   0  0  0  0  0  0  0  0  0  0  0  0
    9.1125   -2.0667    0.0000 C   0  0  0  0  0  0  0  0  0  0  0  0
    9.1167   -3.5000    0.0000 C   0  0  0  0  0  0  0  0  0  0  0  0
    9.5292   -2.7833    0.0000 C   0  0  0  0  0  0  0  0  0  0  0  0
  2  1  1  0
  3  1  1  0
  4  2  1  0
  5  4  1  0
  6  3  1  0
  7  6  1  0
  8  1  2  0
  9  4  1  0
 10  5  2  0
 11  3  1  0
 12  7  2  0
 13  5  1  0
 14  9  1  0
 15 16  1  0
 16  7  1  0
 17 11  1  0
 18 14  2  0
 19 14  1  0
 20 17  1  0
 21 17  1  0
 22 19  2  0
 23 18  1  0
 24 22  1  0
 24 23  2  0
M  END
>  <ID>  (2404) 


>  <MOLENAME>  (2404) 
GLY-LEU-PHE-OH

>  <therap>  (2404) 
immunostimulant

>  <ref>  (2404) 
FEBS Lett 218:55 (1987)

>  <cas#>  (2404) 
nan

>  <source>  (2404) 
mamalian milk

>  <status>  (2404) 
experimental

>  <tradename>  (2404) 
nan

>  <SMILES>  (2404) 
CC(C)CC(NC(=O)CN)C(=O)NC(Cc1ccccc1)C(=O)O

>  <standardized_failed>  (2404) 
False

$$$$

     RDKit          2D

 10  9  0  0  0  0  0  0  0  0999 V2000
    0.6625   -4.6292    0.0000 C   0  0  0  0  0  0  0  0  0  0  0  0
    3.5292   -4.6667    0.0000 C   0  0  0  0  0  0  0  0  0  0  0  0
    2.7542   -4.9417    0.0000 C   0  0  0  0  0  0  0  0  0  0  0  0
    1.4167   -4.9667    0.0000 S   0  0  0  0  0  0  0  0  0  0  0  0
    2.0792   -4.4792    0.0000 C   0  0  0  0  0  0  0  0  0  0  0  0
    0.5667   -3.8167    0.0000 O   0  0  0  0  0  0  0  0  0  0  0  0
    3.5292   -3.8542    0.0000 O   0  0  0  0  0  0  0  0  0  0  0  0
    0.0000   -5.1250    0.0000 N   0  0  0  0  0  0  0  0  0  0  0  0
    2.7875   -5.8000    0.0000 N   0  0  0  0  0  0  0  0  0  0  0  0
    4.2042   -5.1500    0.0000 O   0  0  0  0  0  0  0  0  0  0  0  0
  2  3  1  0
  3  5  1  0
  4  1  1  0
  5  4  1  0
  6  1  2  0
  7  2  2  0
  8  1  1  0
  3  9  1  1
 10  2  1  0
M  END
>  <ID>  (2405) 


>  <MOLENAME>  (2405) 
S-CARBAMOYL-L-CYSTEINE

>  <therap>  (2405) 
antibacterial, antineoplastic

>  <ref>  (2405) 
J Biol Chem 232:159 (1958); Arzneim Forsch 28:1119 (1978); J Immunol 139:202 (1987); Pflugers Arch 431:549 (1996)

>  <cas#>  (2405) 
2072-71-1

>  <source>  (2405) 
synthetic

>  <status>  (2405) 
experimental

>  <tradename>  (2405) 
nan

>  <SMILES>  (2405) 
NC(=O)SC[C@H](N)C(=O)O

>  <standardized_failed>  (2405) 
False

$$$$

     RDKit          2D

 45 45  0  0  0  0  0  0  0  0999 V2000
    0.1000   -1.2375    0.0000 C   0  0  0  0  0  0  0  0  0  0  0  0
   12.3542   -1.1625    0.0000 C   0  0  0  0  0  0  0  0  0  0  0  0
   11.1917   -2.3292    0.0000 C   0  0  0  0  0  0  0  0  0  0  0  0
    1.2792   -2.3750    0.0000 C   0  0  0  0  0  0  0  0  0  0  0  0
    0.8917   -1.0042    0.0000 C   0  0  0  0  0  0  0  0  0  0  0  0
   12.5667   -1.9542    0.0000 C   0  0  0  0  0  0  0  0  0  0  0  0
   -0.0958   -2.0292    0.0000 C   0  0  0  0  0  0  0  0  0  0  0  0
   11.5542   -0.9542    0.0000 C   0  0  0  0  0  0  0  0  0  0  0  0
    1.8750   -2.9417    0.0000 C   0  0  0  0  0  0  0  0  0  0  0  0
   10.6167   -2.9125    0.0000 C   0  0  0  0  0  0  0  0  0  0  0  0
    0.4917   -2.6000    0.0000 C   0  0  0  0  0  0  0  0  0  0  0  0
    1.4792   -1.5792    0.0000 C   0  0  0  0  0  0  0  0  0  0  0  0
   11.9917   -2.5417    0.0000 C   0  0  0  0  0  0  0  0  0  0  0  0
   10.9792   -1.5375    0.0000 C   0  0  0  0  0  0  0  0  0  0  0  0
    7.0750   -3.4417    0.0000 N   0  0  0  0  0  0  0  0  0  0  0  0
    5.4375   -3.4125    0.0000 N   0  0  0  0  0  0  0  0  0  0  0  0
    1.6667   -3.7417    0.0000 O   0  0  0  0  0  0  0  0  0  0  0  0
   10.8292   -3.7042    0.0000 O   0  0  0  0  0  0  0  0  0  0  0  0
    5.8792   -3.8875    0.0000 C   0  0  0  0  0  0  0  0  0  0  0  0
    6.6292   -3.8875    0.0000 C   0  0  0  0  0  0  0  0  0  0  0  0
   -0.4958   -0.6625    0.0000 O   0  0  0  0  0  0  0  0  0  0  0  0
   12.9375   -0.5750    0.0000 O   0  0  0  0  0  0  0  0  0  0  0  0
    6.2750   -2.3667    0.0000 C   0  0  0  0  0  0  0  0  0  0  0  0
   -0.8958   -2.2542    0.0000 O   0  0  0  0  0  0  0  0  0  0  0  0
   11.3375   -0.1542    0.0000 O   0  0  0  0  0  0  0  0  0  0  0  0
    1.0917   -0.2042    0.0000 O   0  0  0  0  0  0  0  0  0  0  0  0
   13.3667   -2.1667    0.0000 O   0  0  0  0  0  0  0  0  0  0  0  0
    9.8250   -2.7000    0.0000 O   0  0  0  0  0  0  0  0  0  0  0  0
    2.6667   -2.7167    0.0000 O   0  0  0  0  0  0  0  0  0  0  0  0
    5.5750   -2.6917    0.0000 C   0  0  0  0  0  0  0  0  0  0  0  0
    6.9542   -2.7167    0.0000 C   0  0  0  0  0  0  0  0  0  0  0  0
    7.6917   -4.5375    0.0000 Cl  0  0  0  0  0  0  0  0  0  0  0  0
    4.6917   -4.5375    0.0000 Cl  0  0  0  0  0  0  0  0  0  0  0  0
    4.6417   -3.6375    0.0000 C   0  0  0  0  0  0  0  0  0  0  0  0
    7.8667   -3.6542    0.0000 C   0  0  0  0  0  0  0  0  0  0  0  0
    4.0500   -3.0667    0.0000 C   0  0  0  0  0  0  0  0  0  0  0  0
    8.4500   -3.0667    0.0000 C   0  0  0  0  0  0  0  0  0  0  0  0
    3.2542   -3.2917    0.0000 C   0  0  0  0  0  0  0  0  0  0  0  0
    9.2417   -3.2792    0.0000 C   0  0  0  0  0  0  0  0  0  0  0  0
   13.7292   -0.7792    0.0000 C   0  0  0  0  0  0  0  0  0  0  0  0
   -0.2958    0.1375    0.0000 C   0  0  0  0  0  0  0  0  0  0  0  0
   11.9167    0.4333    0.0000 C   0  0  0  0  0  0  0  0  0  0  0  0
   13.5875   -2.9625    0.0000 C   0  0  0  0  0  0  0  0  0  0  0  0
   -1.4833   -1.6792    0.0000 C   0  0  0  0  0  0  0  0  0  0  0  0
    1.8875    0.0208    0.0000 C   0  0  0  0  0  0  0  0  0  0  0  0
  2  8  2  0
  3 10  1  0
  4 11  1  0
  5  1  2  0
  6 13  2  0
  7  1  1  0
  8 14  1  0
  9  4  1  0
 10 28  1  0
 11  7  2  0
 12  5  1  0
 13  3  1  0
 14  3  2  0
 15 20  1  0
 16 34  1  0
 17  9  2  0
 18 10  2  0
 19 16  1  0
 20 19  1  0
 21  1  1  0
 22  2  1  0
 23 30  1  0
 24  7  1  0
 25  8  1  0
 26  5  1  0
 27  6  1  0
 28 39  1  0
 29  9  1  0
 30 16  1  0
 31 23  1  0
 34 36  1  0
 35 15  1  0
 36 38  1  0
 37 35  1  0
 38 29  1  0
 39 37  1  0
 40 22  1  0
 41 21  1  0
 42 25  1  0
 43 27  1  0
 44 24  1  0
 45 26  1  0
  4 12  2  0
 15 31  1  0
  6  2  1  0
M  END
>  <ID>  (2406) 


>  <MOLENAME>  (2406) 
DILAZEP DIHYDROCHLORIDE

>  <therap>  (2406) 
vasodilator, platelet aggregation inhibitor

>  <ref>  (2406) 
J. Pharm. Pharmacol. (1983), 35(7), 434-9; Life Sci. (1991), 49(18), PL129-33; J. Pharmacol. Exp. Ther. (1991), 258(3), 767-71

>  <cas#>  (2406) 
35898-87-4

>  <source>  (2406) 
synthetic

>  <status>  (2406) 
INN, JAN

>  <tradename>  (2406) 
nan

>  <SMILES>  (2406) 
COc1c(OC)c(OC)cc(C(=O)OCCCN2CCCN(CCCOC(=O)c3cc(OC)c(OC)c(OC)c3)CC2)c1

>  <standardized_failed>  (2406) 
False

$$$$

     RDKit          2D

 12 12  0  0  0  0  0  0  0  0999 V2000
    3.7667   -4.4417    0.0000 N   0  0  0  0  0  0  0  0  0  0  0  0
    4.4292   -4.9292    0.0000 C   0  0  0  0  0  0  0  0  0  0  0  0
    3.7667   -3.6167    0.0000 C   0  0  0  0  0  0  0  0  0  0  0  0
    4.4792   -3.2042    0.0000 C   0  0  0  0  0  0  0  0  0  0  0  0
    5.2167   -4.6792    0.0000 O   0  0  0  0  0  0  0  0  0  0  0  0
    4.4792   -2.3792    0.0000 O   0  0  0  0  0  0  0  0  0  0  0  0
    5.1917   -3.6167    0.0000 N   0  0  0  0  0  0  0  0  0  0  0  0
    3.1000   -4.9292    0.0000 C   0  0  0  0  0  0  0  0  0  0  0  0
    4.1792   -5.7167    0.0000 C   0  0  0  0  0  0  0  0  0  0  0  0
    3.0542   -3.2042    0.0000 C   0  0  0  0  0  0  0  0  0  0  0  0
    3.3542   -5.7167    0.0000 C   0  0  0  0  0  0  0  0  0  0  0  0
    2.3417   -3.6167    0.0000 C   0  0  0  0  0  0  0  0  0  0  0  0
  2  1  1  0
  3  1  1  0
  4  3  1  0
  5  2  2  0
  6  4  2  0
  7  4  1  0
  8  1  1  0
  9  2  1  0
  3 10  1  1
 11  8  1  0
 12 10  1  0
 11  9  1  0
M  END
>  <ID>  (2407) 


>  <MOLENAME>  (2407) 
LEVETIRACETAM

>  <therap>  (2407) 
antiepileptic

>  <ref>  (2407) 
Drugs (2011), 71(4), 489-514; Eur. J. Pharmacol. (1995), 286(2), 137-46; Eur. J. Pharmacol. (1992), 222(2-3), 193-203

>  <cas#>  (2407) 
102767-28-2

>  <source>  (2407) 
synthetic; UCB-L059, UCB-22059

>  <status>  (2407) 
USAN, INN, BAN

>  <tradename>  (2407) 
KEPPRA

>  <SMILES>  (2407) 
CC[C@@H](C(N)=O)N1CCCC1=O

>  <standardized_failed>  (2407) 
False

$$$$

     RDKit          2D

 25 26  0  0  0  0  0  0  0  0999 V2000
    4.3625   -6.1542    0.0000 N   0  0  0  0  0  0  0  0  0  0  0  0
    3.6500   -4.9125    0.0000 N   0  0  0  0  0  0  0  0  0  0  0  0
    4.3625   -6.9792    0.0000 C   0  0  0  0  0  0  0  0  0  0  0  0
    3.6500   -5.7417    0.0000 C   0  0  0  0  0  0  0  0  0  0  0  0
    4.3625   -4.5000    0.0000 C   0  0  0  0  0  0  0  0  0  0  0  0
    5.0792   -5.7417    0.0000 C   0  0  0  0  0  0  0  0  0  0  0  0
    5.0792   -4.9125    0.0000 C   0  0  0  0  0  0  0  0  0  0  0  0
    5.0375   -7.4667    0.0000 C   0  0  0  0  0  0  0  0  0  0  0  0
    3.7000   -7.4625    0.0000 O   0  0  0  0  0  0  0  0  0  0  0  0
    4.3542   -3.6750    0.0000 N   0  0  0  0  0  0  0  0  0  0  0  0
    4.7792   -8.2500    0.0000 C   0  0  0  0  0  0  0  0  0  0  0  0
    3.9542   -8.2500    0.0000 C   0  0  0  0  0  0  0  0  0  0  0  0
    5.0667   -3.2542    0.0000 C   0  0  0  0  0  0  0  0  0  0  0  0
    2.9292   -6.1500    0.0000 O   0  0  0  0  0  0  0  0  0  0  0  0
    5.0625   -2.4292    0.0000 O   0  0  0  0  0  0  0  0  0  0  0  0
    5.7917   -4.4917    0.0000 F   0  0  0  0  0  0  0  0  0  0  0  0
    5.8167   -7.2042    0.0000 O   0  0  0  0  0  0  0  0  0  0  0  0
    5.2667   -8.9167    0.0000 O   0  0  0  0  0  0  0  0  0  0  0  0
    5.7792   -3.6625    0.0000 O   0  0  0  0  0  0  0  0  0  0  0  0
    3.4667   -8.9167    0.0000 C   0  0  0  0  0  0  0  0  0  0  0  0
    6.4917   -3.2500    0.0000 C   0  0  0  0  0  0  0  0  0  0  0  0
    7.2042   -3.6542    0.0000 C   0  0  0  0  0  0  0  0  0  0  0  0
    8.6292   -3.6542    0.0000 C   0  0  0  0  0  0  0  0  0  0  0  0
    7.9167   -3.2417    0.0000 C   0  0  0  0  0  0  0  0  0  0  0  0
    9.3417   -3.2417    0.0000 C   0  0  0  0  0  0  0  0  0  0  0  0
  2  4  1  0
  3  1  1  0
  4  1  1  0
  5  7  1  0
  6  1  1  0
  7  6  2  0
  8  3  1  0
  9  3  1  0
 10  5  1  0
 11  8  1  0
 12  9  1  0
 13 10  1  0
 14  4  2  0
 15 13  2  0
 16  7  1  0
  8 17  1  6
 11 18  1  6
 19 13  1  0
 12 20  1  1
 21 19  1  0
 22 21  1  0
 23 24  1  0
 24 22  1  0
 25 23  1  0
  2  5  2  0
 12 11  1  0
M  END
>  <ID>  (2408) 


>  <MOLENAME>  (2408) 
CAPECITABINE

>  <therap>  (2408) 
antineoplastic

>  <ref>  (2408) 
J Clin Oncol19:2282, 4097 (2001); Drugs61:2309 (2001)

>  <cas#>  (2408) 
154361-50-9

>  <source>  (2408) 
synthetic; RO-091978

>  <status>  (2408) 
USP, INN, BAN

>  <tradename>  (2408) 
XELODA

>  <SMILES>  (2408) 
CCCCCOC(=O)Nc1nc(=O)n(C2O[C@H](C)[C@@H](O)[C@H]2O)cc1F

>  <standardized_failed>  (2408) 
False

$$$$

     RDKit          2D

 33 37  0  0  0  0  0  0  0  0999 V2000
    4.6167   -1.0042    0.0000 N   0  0  0  0  0  0  0  0  0  0  0  0
    4.1292   -0.3375    0.0000 C   0  0  0  0  0  0  0  0  0  0  0  0
    4.6167    0.3333    0.0000 N   0  0  0  0  0  0  0  0  0  0  0  0
    5.4042   -0.7500    0.0000 C   0  0  0  0  0  0  0  0  0  0  0  0
    1.0500   -2.2500    0.0000 C   0  0  0  0  0  0  0  0  0  0  0  0
    6.1167   -1.1625    0.0000 C   0  0  0  0  0  0  0  0  0  0  0  0
    1.4542   -0.9792    0.0000 N   0  0  0  0  0  0  0  0  0  0  0  0
    1.7167   -1.7625    0.0000 N   0  0  0  0  0  0  0  0  0  0  0  0
    0.6292   -0.9875    0.0000 N   0  0  0  0  0  0  0  0  0  0  0  0
    5.4042    0.0750    0.0000 C   0  0  0  0  0  0  0  0  0  0  0  0
    0.3792   -1.7667    0.0000 N   0  0  0  0  0  0  0  0  0  0  0  0
    1.0542   -3.0750    0.0000 C   0  0  0  0  0  0  0  0  0  0  0  0
    6.1167   -1.9875    0.0000 C   0  0  0  0  0  0  0  0  0  0  0  0
    1.7667   -3.4875    0.0000 C   0  0  0  0  0  0  0  0  0  0  0  0
    4.6167   -1.8292    0.0000 C   0  0  0  0  0  0  0  0  0  0  0  0
    2.4792   -3.0750    0.0000 C   0  0  0  0  0  0  0  0  0  0  0  0
    5.4042   -2.4000    0.0000 O   0  0  0  0  0  0  0  0  0  0  0  0
    3.3042   -0.3375    0.0000 O   0  0  0  0  0  0  0  0  0  0  0  0
    2.4792   -2.2500    0.0000 C   0  0  0  0  0  0  0  0  0  0  0  0
    3.2000   -3.4875    0.0000 C   0  0  0  0  0  0  0  0  0  0  0  0
    3.9042   -2.2417    0.0000 C   0  0  0  0  0  0  0  0  0  0  0  0
    6.8292   -2.4000    0.0000 O   0  0  0  0  0  0  0  0  0  0  0  0
    6.8292   -0.7500    0.0000 C   0  0  0  0  0  0  0  0  0  0  0  0
    3.9125   -3.0750    0.0000 C   0  0  0  0  0  0  0  0  0  0  0  0
    3.1875   -1.8375    0.0000 C   0  0  0  0  0  0  0  0  0  0  0  0
    6.1167    0.4875    0.0000 C   0  0  0  0  0  0  0  0  0  0  0  0
    0.3417   -3.4917    0.0000 C   0  0  0  0  0  0  0  0  0  0  0  0
    1.7667   -4.3167    0.0000 C   0  0  0  0  0  0  0  0  0  0  0  0
    6.8292    0.0833    0.0000 C   0  0  0  0  0  0  0  0  0  0  0  0
    2.8917    0.3833    0.0000 C   0  0  0  0  0  0  0  0  0  0  0  0
    1.0542   -4.7292    0.0000 C   0  0  0  0  0  0  0  0  0  0  0  0
    0.3417   -4.3167    0.0000 C   0  0  0  0  0  0  0  0  0  0  0  0
    2.0667    0.3833    0.0000 C   0  0  0  0  0  0  0  0  0  0  0  0
  2  1  1  0
  3  2  2  0
  4  1  1  0
  5 12  1  0
  6  4  2  0
  7  8  1  0
  8  5  2  0
  9 11  1  0
 10  4  1  0
 11  5  1  0
 12 14  1  0
 13  6  1  0
 14 16  1  0
 15  1  1  0
 16 19  2  0
 17 13  2  0
 18  2  1  0
 19 25  1  0
 20 24  2  0
 21 15  1  0
 22 13  1  0
 23  6  1  0
 24 21  1  0
 25 21  2  0
 26 10  2  0
 27 12  2  0
 28 14  2  0
 29 26  1  0
 30 18  1  0
 31 28  1  0
 32 31  2  0
 33 30  1  0
 10  3  1  0
 16 20  1  0
 23 29  2  0
 27 32  1  0
  7  9  2  0
M  END
>  <ID>  (2409) 


>  <MOLENAME>  (2409) 
CANDESARTAN

>  <therap>  (2409) 
antihypertensive, angiotensin II inhibitor

>  <ref>  (2409) 
J Pharmacol Exp Ther 266:114 (1993); Clin Ther 15:684 ()1993;16:74 (1994); Lancet 362:759 (2003)

>  <cas#>  (2409) 
139481-59-7

>  <source>  (2409) 
synthetic; CV-11974

>  <status>  (2409) 
USAN, INN

>  <tradename>  (2409) 
nan

>  <SMILES>  (2409) 
CCOc1nc2cccc(C(=O)O)c2n1Cc1ccc(-c2ccccc2-c2nnn[nH]2)cc1

>  <standardized_failed>  (2409) 
False

$$$$

     RDKit          2D

 31 35  0  0  0  0  0  0  0  0999 V2000
    2.5417   -2.9417    0.0000 N   0  0  0  0  0  0  0  0  0  0  0  0
    2.5417   -2.1167    0.0000 C   0  0  0  0  0  0  0  0  0  0  0  0
    3.2542   -3.3542    0.0000 C   0  0  0  0  0  0  0  0  0  0  0  0
    3.9667   -2.9500    0.0000 C   0  0  0  0  0  0  0  0  0  0  0  0
    3.2542   -1.7042    0.0000 N   0  0  0  0  0  0  0  0  0  0  0  0
    8.3167   -5.4167    0.0000 N   0  0  0  0  0  0  0  0  0  0  0  0
    3.9667   -2.1250    0.0000 C   0  0  0  0  0  0  0  0  0  0  0  0
    8.2375   -4.6042    0.0000 C   0  0  0  0  0  0  0  0  0  0  0  0
    8.9917   -4.2667    0.0000 C   0  0  0  0  0  0  0  0  0  0  0  0
    9.1250   -5.5917    0.0000 O   0  0  0  0  0  0  0  0  0  0  0  0
    9.5417   -4.8792    0.0000 C   0  0  0  0  0  0  0  0  0  0  0  0
    4.6792   -3.3625    0.0000 C   0  0  0  0  0  0  0  0  0  0  0  0
    6.1042   -3.3667    0.0000 N   0  0  0  0  0  0  0  0  0  0  0  0
    9.2500   -3.4875    0.0000 C   0  0  0  0  0  0  0  0  0  0  0  0
   10.3417   -4.7167    0.0000 C   0  0  0  0  0  0  0  0  0  0  0  0
    3.2417   -4.1792    0.0000 O   0  0  0  0  0  0  0  0  0  0  0  0
    1.8292   -1.7042    0.0000 C   0  0  0  0  0  0  0  0  0  0  0  0
    7.5250   -4.1875    0.0000 C   0  0  0  0  0  0  0  0  0  0  0  0
    5.3917   -2.9542    0.0000 C   0  0  0  0  0  0  0  0  0  0  0  0
    1.8292   -3.3542    0.0000 C   0  0  0  0  0  0  0  0  0  0  0  0
   10.6042   -3.9292    0.0000 C   0  0  0  0  0  0  0  0  0  0  0  0
    7.5292   -3.3667    0.0000 C   0  0  0  0  0  0  0  0  0  0  0  0
    6.8125   -4.5917    0.0000 C   0  0  0  0  0  0  0  0  0  0  0  0
    6.8167   -2.9542    0.0000 C   0  0  0  0  0  0  0  0  0  0  0  0
    6.1042   -4.1792    0.0000 C   0  0  0  0  0  0  0  0  0  0  0  0
   10.0500   -3.3167    0.0000 C   0  0  0  0  0  0  0  0  0  0  0  0
    4.6875   -1.7167    0.0000 C   0  0  0  0  0  0  0  0  0  0  0  0
   11.4125   -3.7667    0.0000 F   0  0  0  0  0  0  0  0  0  0  0  0
    1.8292   -0.8792    0.0000 O   0  0  0  0  0  0  0  0  0  0  0  0
    1.1250   -2.9417    0.0000 C   0  0  0  0  0  0  0  0  0  0  0  0
    1.1250   -2.1167    0.0000 C   0  0  0  0  0  0  0  0  0  0  0  0
  2  1  1  0
  3  1  1  0
  4  3  1  0
  5  2  2  0
  6  8  2  0
  7  4  2  0
  8 18  1  0
  9  8  1  0
 10  6  1  0
 11  9  2  0
 12  4  1  0
 13 19  1  0
 14  9  1  0
 15 11  1  0
 16  3  2  0
 17  2  1  0
 18 23  1  0
 19 12  1  0
 20  1  1  0
 21 26  1  0
 22 24  1  0
 23 25  1  0
 24 13  1  0
 25 13  1  0
 26 14  2  0
 27  7  1  0
 28 21  1  0
 17 29  1  1
 30 20  1  0
 31 30  1  0
 17 31  1  0
  5  7  1  0
 22 18  1  0
 10 11  1  0
 15 21  2  0
M  END
>  <ID>  (2410) 


>  <MOLENAME>  (2410) 
PALIPERIDONE

>  <therap>  (2410) 
schizopheria therapy

>  <ref>  (2410) 
Am J Health-System Pharm 65:403 (2008); Psychosomatics 51:80 (2010)

>  <cas#>  (2410) 
144598-74-4

>  <source>  (2410) 
synthetic

>  <status>  (2410) 
USAN, INN, BAN

>  <tradename>  (2410) 
INVEGA

>  <SMILES>  (2410) 
Cc1c(CCN2CCC(c3noc4c3ccc(F)c4)CC2)c(=O)n2CCC[C@@H](O)c2n1

>  <standardized_failed>  (2410) 
False

$$$$

     RDKit          2D

 13 14  0  0  0  0  0  0  0  0999 V2000
    3.0917   -4.8500    0.0000 C   0  0  0  0  0  0  0  0  0  0  0  0
    3.3042   -5.6417    0.0000 C   0  0  0  0  0  0  0  0  0  0  0  0
    2.3375   -2.4167    0.0000 C   0  0  0  0  0  0  0  0  0  0  0  0
    2.3292   -1.5917    0.0000 C   0  0  0  0  0  0  0  0  0  0  0  0
    3.1250   -2.6667    0.0000 C   0  0  0  0  0  0  0  0  0  0  0  0
    3.1167   -1.3292    0.0000 C   0  0  0  0  0  0  0  0  0  0  0  0
    3.6042   -1.9917    0.0000 C   0  0  0  0  0  0  0  0  0  0  0  0
    3.3792   -3.4500    0.0000 N   0  0  0  0  0  0  0  0  0  0  0  0
    2.8375   -4.0667    0.0000 C   0  0  0  0  0  0  0  0  0  0  0  0
    1.6167   -2.8292    0.0000 C   0  0  0  0  0  0  0  0  0  0  0  0
    1.6167   -1.1792    0.0000 C   0  0  0  0  0  0  0  0  0  0  0  0
    0.9042   -2.4167    0.0000 C   0  0  0  0  0  0  0  0  0  0  0  0
    0.9042   -1.5917    0.0000 C   0  0  0  0  0  0  0  0  0  0  0  0
  2  1  3  0
  3  5  1  0
  4  3  2  0
  5  8  1  1
  6  7  1  0
  7  5  1  0
  8  9  1  0
  9  1  1  0
 10  3  1  0
 11  4  1  0
 12 10  2  0
 13 12  1  0
  6  4  1  0
 11 13  2  0
M  END
>  <ID>  (2411) 


>  <MOLENAME>  (2411) 
RASAGILINE

>  <therap>  (2411) 
antiparkinsonian

>  <ref>  (2411) 
Lancet 365:947 (2005); J Clin Pharmacol 45:878 (2005)

>  <cas#>  (2411) 
136236-51-6

>  <source>  (2411) 
synthetic; AGN-1135

>  <status>  (2411) 
USAN, INN

>  <tradename>  (2411) 
AZILECT

>  <SMILES>  (2411) 
C#CCN[C@@H]1CCc2c1cccc2

>  <standardized_failed>  (2411) 
False

$$$$

     RDKit          2D

 20 22  0  0  0  0  0  0  0  0999 V2000
    3.5500   -4.4167    0.0000 S   0  0  0  0  0  0  0  0  0  0  0  0
    2.7625   -3.3375    0.0000 N   0  0  0  0  0  0  0  0  0  0  0  0
    4.0292   -3.7417    0.0000 C   0  0  0  0  0  0  0  0  0  0  0  0
    2.7667   -4.1625    0.0000 C   0  0  0  0  0  0  0  0  0  0  0  0
    3.5417   -3.0792    0.0000 C   0  0  0  0  0  0  0  0  0  0  0  0
    1.9375   -3.3375    0.0000 C   0  0  0  0  0  0  0  0  0  0  0  0
    1.9375   -4.1625    0.0000 C   0  0  0  0  0  0  0  0  0  0  0  0
    6.2167   -3.3917    0.0000 N   0  0  0  0  0  0  0  0  0  0  0  0
    5.4625   -3.7292    0.0000 N   0  0  0  0  0  0  0  0  0  0  0  0
    4.7417   -3.3292    0.0000 C   0  0  0  0  0  0  0  0  0  0  0  0
    3.7917   -2.2917    0.0000 C   0  0  0  0  0  0  0  0  0  0  0  0
    6.7667   -4.0000    0.0000 N   0  0  0  0  0  0  0  0  0  0  0  0
    3.8042   -5.2000    0.0000 O   0  0  0  0  0  0  0  0  0  0  0  0
    2.8292   -4.8250    0.0000 O   0  0  0  0  0  0  0  0  0  0  0  0
    6.3667   -4.7167    0.0000 C   0  0  0  0  0  0  0  0  0  0  0  0
    5.5542   -4.5542    0.0000 C   0  0  0  0  0  0  0  0  0  0  0  0
    1.3500   -2.7542    0.0000 O   0  0  0  0  0  0  0  0  0  0  0  0
    3.2375   -1.6792    0.0000 O   0  0  0  0  0  0  0  0  0  0  0  0
    4.7417   -4.1542    0.0000 C   0  0  0  0  0  0  0  0  0  0  0  0
    4.6000   -2.1167    0.0000 O   0  0  0  0  0  0  0  0  0  0  0  0
  2  4  1  0
  3  1  1  0
  4  1  1  0
  5  3  1  0
  6  7  1  0
  7  4  1  0
  8  9  1  0
  9 10  1  0
 10  3  1  0
 11  5  1  0
 12  8  2  0
 13  1  2  0
 14  1  2  0
 15 16  2  0
 16  9  1  0
 17  6  2  0
 18 11  2  0
  3 19  1  1
 20 11  1  0
  5  2  1  0
  2  6  1  0
 15 12  1  0
M  END
>  <ID>  (2412) 


>  <MOLENAME>  (2412) 
TAZOBACTAM

>  <therap>  (2412) 
b-lactamase inhibitor

>  <ref>  (2412) 
Antimicrob Agents Chemother 29:960 (1986); J Med Chem 30:1469 (1987)

>  <cas#>  (2412) 
89786-04-9

>  <source>  (2412) 
semisynthetic; YTR-830H

>  <status>  (2412) 
USP, INN, BAN

>  <tradename>  (2412) 
TAZOCIN

>  <SMILES>  (2412) 
C[C@]1(Cn2ccnn2)C(C(=O)O)N2C(=O)CC2S1(=O)=O

>  <standardized_failed>  (2412) 
False

$$$$

     RDKit          2D

 19 20  0  0  0  0  0  0  0  0999 V2000
    4.5917   -2.7250    0.0000 C   0  0  0  0  0  0  0  0  0  0  0  0
    4.0417   -1.5167    0.0000 N   0  0  0  0  0  0  0  0  0  0  0  0
    5.2000   -2.1667    0.0000 N   0  0  0  0  0  0  0  0  0  0  0  0
    3.8792   -2.3167    0.0000 C   0  0  0  0  0  0  0  0  0  0  0  0
    4.6000   -3.5542    0.0000 C   0  0  0  0  0  0  0  0  0  0  0  0
    3.8875   -3.9750    0.0000 N   0  0  0  0  0  0  0  0  0  0  0  0
    4.8542   -1.4250    0.0000 C   0  0  0  0  0  0  0  0  0  0  0  0
    3.1667   -2.7375    0.0000 C   0  0  0  0  0  0  0  0  0  0  0  0
    3.1667   -3.5625    0.0000 C   0  0  0  0  0  0  0  0  0  0  0  0
    3.4875   -0.9042    0.0000 C   0  0  0  0  0  0  0  0  0  0  0  0
    5.3167   -3.9667    0.0000 N   0  0  0  0  0  0  0  0  0  0  0  0
    6.3292   -3.7125    0.0000 Cl  0  0  0  0  0  0  0  0  0  0  0  0
    2.4542   -2.3250    0.0000 C   0  0  0  0  0  0  0  0  0  0  0  0
    2.4542   -3.9792    0.0000 C   0  0  0  0  0  0  0  0  0  0  0  0
    3.7292   -0.1167    0.0000 C   0  0  0  0  0  0  0  0  0  0  0  0
    3.1750    0.4875    0.0000 C   0  0  0  0  0  0  0  0  0  0  0  0
    4.5417    0.0583    0.0000 C   0  0  0  0  0  0  0  0  0  0  0  0
    1.7417   -2.7375    0.0000 C   0  0  0  0  0  0  0  0  0  0  0  0
    1.7417   -3.5667    0.0000 C   0  0  0  0  0  0  0  0  0  0  0  0
  2  4  1  0
  3  1  1  0
  4  1  2  0
  5  1  1  0
  6  5  2  0
  7  3  2  0
  8  4  1  0
  9  6  1  0
 10  2  1  0
 11  5  1  0
 13  8  2  0
 14  9  2  0
 15 10  1  0
 16 15  1  0
 17 15  1  0
 18 13  1  0
 19 14  1  0
  7  2  1  0
  8  9  1  0
 18 19  2  0
M  END
>  <ID>  (2413) 


>  <MOLENAME>  (2413) 
IMIQUIMOD HYDROCHLORIDE

>  <therap>  (2413) 
immunomodulator

>  <ref>  (2413) 
Cancer Res 53:5176 (1993); Arch Dermatol 134:25 (1998); J Am Acad Dermatol 43:S1 (2000)

>  <cas#>  (2413) 
99011-02-6 (base)

>  <source>  (2413) 
synthetic; R-837, S-26308

>  <status>  (2413) 
USAN, INN, BAN

>  <tradename>  (2413) 
ALDARA

>  <SMILES>  (2413) 
CC(C)Cn1cnc2c1c1ccccc1nc2N

>  <standardized_failed>  (2413) 
False

$$$$

     RDKit          2D

 30 32  0  0  0  0  0  0  0  0999 V2000
    5.2250   -0.3667    0.0000 C   0  0  0  0  0  0  0  0  0  0  0  0
    4.5167   -1.6125    0.0000 N   0  0  0  0  0  0  0  0  0  0  0  0
    3.8000   -0.3750    0.0000 C   0  0  0  0  0  0  0  0  0  0  0  0
    3.8000   -1.2000    0.0000 C   0  0  0  0  0  0  0  0  0  0  0  0
    4.5042    0.0458    0.0000 C   0  0  0  0  0  0  0  0  0  0  0  0
    5.2292   -1.1917    0.0000 C   0  0  0  0  0  0  0  0  0  0  0  0
    3.0792   -1.6167    0.0000 C   0  0  0  0  0  0  0  0  0  0  0  0
    2.3667   -1.2042    0.0000 C   0  0  0  0  0  0  0  0  0  0  0  0
    3.0792    0.0375    0.0000 C   0  0  0  0  0  0  0  0  0  0  0  0
    1.6542   -1.6125    0.0000 N   0  0  0  0  0  0  0  0  0  0  0  0
    5.9375    0.0500    0.0000 C   0  0  0  0  0  0  0  0  0  0  0  0
    2.3667   -0.3750    0.0000 C   0  0  0  0  0  0  0  0  0  0  0  0
    4.5167   -2.4292    0.0000 C   0  0  0  0  0  0  0  0  0  0  0  0
    0.2250   -2.4292    0.0000 N   0  0  0  0  0  0  0  0  0  0  0  0
    4.5042    0.8708    0.0000 O   0  0  0  0  0  0  0  0  0  0  0  0
    0.9417   -1.1917    0.0000 C   0  0  0  0  0  0  0  0  0  0  0  0
    1.6542   -2.4375    0.0000 C   0  0  0  0  0  0  0  0  0  0  0  0
    5.9292    0.8750    0.0000 O   0  0  0  0  0  0  0  0  0  0  0  0
    5.2292   -2.8417    0.0000 C   0  0  0  0  0  0  0  0  0  0  0  0
    3.8000   -2.8417    0.0000 C   0  0  0  0  0  0  0  0  0  0  0  0
    0.2292   -1.6042    0.0000 C   0  0  0  0  0  0  0  0  0  0  0  0
    0.9375   -2.8417    0.0000 C   0  0  0  0  0  0  0  0  0  0  0  0
    1.6542    0.0333    0.0000 F   0  0  0  0  0  0  0  0  0  0  0  0
    6.6542   -0.3542    0.0000 O   0  0  0  0  0  0  0  0  0  0  0  0
    4.5167   -4.0792    0.0000 C   0  0  0  0  0  0  0  0  0  0  0  0
    3.8000   -3.6667    0.0000 C   0  0  0  0  0  0  0  0  0  0  0  0
    5.2292   -3.6625    0.0000 C   0  0  0  0  0  0  0  0  0  0  0  0
    4.5167   -4.9042    0.0000 F   0  0  0  0  0  0  0  0  0  0  0  0
    7.9625   -1.4292    0.0000 Cl  0  0  0  0  0  0  0  0  0  0  0  0
   -0.4958   -2.8375    0.0000 C   0  0  0  0  0  0  0  0  0  0  0  0
  2  6  1  0
  3  5  1  0
  4  2  1  0
  5  1  1  0
  6  1  2  0
  7  4  2  0
  8  7  1  0
  9  3  2  0
 10  8  1  0
 11  1  1  0
 12  9  1  0
 13  2  1  0
 14 22  1  0
 15  5  2  0
 16 10  1  0
 17 10  1  0
 18 11  2  0
 19 13  2  0
 20 13  1  0
 21 16  1  0
 22 17  1  0
 23 12  1  0
 24 11  1  0
 25 26  1  0
 26 20  2  0
 27 19  1  0
 28 25  1  0
 30 14  1  0
  3  4  1  0
 12  8  2  0
 25 27  2  0
 21 14  1  0
M  END
>  <ID>  (2414) 


>  <MOLENAME>  (2414) 
DIFLOXACIN HYDROCHLORIDE

>  <therap>  (2414) 
antibacterial, DNA gyrase inhibitor

>  <ref>  (2414) 
Antimicrob Agents Chemother 29:193 (1986); 30:689 (1986

>  <cas#>  (2414) 
91296-86-5

>  <source>  (2414) 
synthetic; Abbott-56619

>  <status>  (2414) 
USAN, INN

>  <tradename>  (2414) 
DICURAL

>  <SMILES>  (2414) 
CN1CCN(c2c(F)cc3c(=O)c(C(=O)O)cn(-c4ccc(F)cc4)c3c2)CC1

>  <standardized_failed>  (2414) 
False

$$$$

     RDKit          2D

  8  7  0  0  0  0  0  0  0  0999 V2000
    4.1167   -1.1542    0.0000 C   0  0  0  0  0  0  0  0  0  0  0  0
    4.8292   -0.7417    0.0000 C   0  0  0  0  0  0  0  0  0  0  0  0
    3.4042   -1.5625    0.0000 Cl  0  0  0  0  0  0  0  0  0  0  0  0
    5.5417   -0.3167    0.0000 Cl  0  0  0  0  0  0  0  0  0  0  0  0
    3.7042   -0.4375    0.0000 F   0  0  0  0  0  0  0  0  0  0  0  0
    4.5292   -1.8667    0.0000 F   0  0  0  0  0  0  0  0  0  0  0  0
    4.4167   -0.0167    0.0000 F   0  0  0  0  0  0  0  0  0  0  0  0
    5.2417   -1.4500    0.0000 F   0  0  0  0  0  0  0  0  0  0  0  0
  2  1  1  0
  3  1  1  0
  4  2  1  0
  5  1  1  0
  6  1  1  0
  7  2  1  0
  8  2  1  0
M  END
>  <ID>  (2415) 


>  <MOLENAME>  (2415) 
CRYOFLURANE

>  <therap>  (2415) 
anesthetic (local)

>  <ref>  (2415) 
Ann Pharm Fr 20:545 (1962); Dermatol Surg 29:1057 (2003)

>  <cas#>  (2415) 
76-14-2

>  <source>  (2415) 
synthetic

>  <status>  (2415) 
NF

>  <tradename>  (2415) 
FREON-114

>  <SMILES>  (2415) 
FC(F)(Cl)C(F)(F)Cl

>  <standardized_failed>  (2415) 
False

$$$$

     RDKit          2D

 31 36  0  0  0  0  0  0  0  0999 V2000
    4.1792   -2.4667    0.0000 C   0  0  0  0  0  0  0  0  0  0  0  0
    4.1792   -1.6500    0.0000 C   0  0  0  0  0  0  0  0  0  0  0  0
    4.8917   -1.2375    0.0000 C   0  0  0  0  0  0  0  0  0  0  0  0
    9.1667    1.2500    0.0000 C   0  0  0  0  0  0  0  0  0  0  0  0
    4.8917   -0.4167    0.0000 C   0  0  0  0  0  0  0  0  0  0  0  0
    8.4542    0.8333    0.0000 C   0  0  0  0  0  0  0  0  0  0  0  0
    5.6042   -0.0042    0.0000 C   0  0  0  0  0  0  0  0  0  0  0  0
    2.8000   -3.1792    0.0000 C   0  0  0  0  0  0  0  0  0  0  0  0
    4.2375   -2.8042    0.0000 C   0  0  0  0  0  0  0  0  0  0  0  0
    5.4250   -2.4667    0.0000 C   0  0  0  0  0  0  0  0  0  0  0  0
    7.7417    1.2458    0.0000 C   0  0  0  0  0  0  0  0  0  0  0  0
    6.3167   -0.4167    0.0000 C   0  0  0  0  0  0  0  0  0  0  0  0
    7.0292    0.8250    0.0000 C   0  0  0  0  0  0  0  0  0  0  0  0
    7.0292   -0.0000    0.0000 C   0  0  0  0  0  0  0  0  0  0  0  0
    5.1125   -3.3667    0.0000 C   0  0  0  0  0  0  0  0  0  0  0  0
    3.7792   -3.4292    0.0000 C   0  0  0  0  0  0  0  0  0  0  0  0
    4.1125   -4.6542    0.0000 C   0  0  0  0  0  0  0  0  0  0  0  0
    3.4625   -1.2375    0.0000 C   0  0  0  0  0  0  0  0  0  0  0  0
    9.1667    2.0792    0.0000 O   0  0  0  0  0  0  0  0  0  0  0  0
    8.4625    0.0083    0.0000 C   0  0  0  0  0  0  0  0  0  0  0  0
    4.1750   -0.0000    0.0000 C   0  0  0  0  0  0  0  0  0  0  0  0
    5.6042    0.8250    0.0000 C   0  0  0  0  0  0  0  0  0  0  0  0
    6.3167    1.2375    0.0000 C   0  0  0  0  0  0  0  0  0  0  0  0
    7.7500   -0.4125    0.0000 C   0  0  0  0  0  0  0  0  0  0  0  0
    3.4625   -0.4125    0.0000 C   0  0  0  0  0  0  0  0  0  0  0  0
    5.0500   -4.1542    0.0000 C   0  0  0  0  0  0  0  0  0  0  0  0
    4.2667   -3.8417    0.0000 C   0  0  0  0  0  0  0  0  0  0  0  0
    4.7375   -3.0875    0.0000 C   0  0  0  0  0  0  0  0  0  0  0  0
    9.8875    0.8458    0.0000 O   0  0  0  0  0  0  0  0  0  0  0  0
    2.7417   -1.6500    0.0000 O   0  0  0  0  0  0  0  0  0  0  0  0
    2.0292   -1.2417    0.0000 C   0  0  0  0  0  0  0  0  0  0  0  0
  2  1  1  0
  3  2  2  0
  4  6  1  0
  5  3  1  0
  6 11  2  0
  7  5  1  0
  8  1  1  0
  9  1  1  0
 10  1  1  0
 11 13  1  0
 12  7  1  0
 13 23  2  0
 14 12  2  0
 15 10  1  0
 16  9  1  0
 17  8  1  0
 18  2  1  0
 19  4  2  0
 20 24  2  0
 21 25  1  0
 22  7  2  0
 23 22  1  0
 24 14  1  0
 25 18  2  0
 26 15  1  0
 27 16  1  0
 28 15  1  0
 29  4  1  0
 30 18  1  0
 31 30  1  0
 16 28  1  0
 17 26  1  0
 27 17  1  0
  5 21  2  0
 14 13  1  0
 20  6  1  0
M  END
>  <ID>  (2416) 


>  <MOLENAME>  (2416) 
ADAPALENE

>  <therap>  (2416) 
anti-acne

>  <ref>  (2416) 
Drugs 53:511 (1997); 64:1465 (2004)

>  <cas#>  (2416) 
106685-40-9

>  <source>  (2416) 
synthetic; CD-271

>  <status>  (2416) 
USAN, INN, BAN

>  <tradename>  (2416) 
DIFFERIN

>  <SMILES>  (2416) 
COc1ccc(-c2ccc3cc(C(=O)O)ccc3c2)cc1C12CC3CC(CC(C3)C1)C2

>  <standardized_failed>  (2416) 
False

$$$$

     RDKit          2D

 22 24  0  0  0  0  0  0  0  0999 V2000
    4.9125   -4.4250    0.0000 C   0  0  0  0  0  0  0  0  0  0  0  0
    4.9167   -5.2542    0.0000 C   0  0  0  0  0  0  0  0  0  0  0  0
    5.6292   -5.6625    0.0000 N   0  0  0  0  0  0  0  0  0  0  0  0
    4.1917   -4.0167    0.0000 C   0  0  0  0  0  0  0  0  0  0  0  0
    3.4875   -4.4292    0.0000 C   0  0  0  0  0  0  0  0  0  0  0  0
    6.3417   -4.4125    0.0000 C   0  0  0  0  0  0  0  0  0  0  0  0
    6.3500   -5.2417    0.0000 C   0  0  0  0  0  0  0  0  0  0  0  0
    4.2042   -5.6667    0.0000 O   0  0  0  0  0  0  0  0  0  0  0  0
    5.6250   -4.0042    0.0000 C   0  0  0  0  0  0  0  0  0  0  0  0
    3.4875   -5.2542    0.0000 C   0  0  0  0  0  0  0  0  0  0  0  0
    2.7667   -4.0167    0.0000 C   0  0  0  0  0  0  0  0  0  0  0  0
    7.0542   -3.9917    0.0000 C   0  0  0  0  0  0  0  0  0  0  0  0
    2.0542   -4.4375    0.0000 C   0  0  0  0  0  0  0  0  0  0  0  0
    4.1917   -3.1917    0.0000 O   0  0  0  0  0  0  0  0  0  0  0  0
    2.7667   -5.6750    0.0000 C   0  0  0  0  0  0  0  0  0  0  0  0
    7.0417   -3.1667    0.0000 O   0  0  0  0  0  0  0  0  0  0  0  0
    2.0542   -5.2625    0.0000 C   0  0  0  0  0  0  0  0  0  0  0  0
    7.0667   -5.6542    0.0000 N   0  0  0  0  0  0  0  0  0  0  0  0
    7.7667   -4.4000    0.0000 O   0  0  0  0  0  0  0  0  0  0  0  0
    1.3417   -4.0250    0.0000 C   0  0  0  0  0  0  0  0  0  0  0  0
    0.6292   -4.4375    0.0000 C   0  0  0  0  0  0  0  0  0  0  0  0
    1.3417   -3.2000    0.0000 C   0  0  0  0  0  0  0  0  0  0  0  0
  2  1  1  0
  3  2  2  0
  4  1  1  0
  5  4  1  0
  6  9  1  0
  7  6  2  0
  8  2  1  0
  9  1  2  0
 10  5  2  0
 11  5  1  0
 12  6  1  0
 13 11  2  0
 14  4  2  0
 15 10  1  0
 16 12  2  0
 17 15  2  0
 18  7  1  0
 19 12  1  0
 20 13  1  0
 21 20  1  0
 22 20  1  0
  3  7  1  0
  8 10  1  0
 13 17  1  0
M  END
>  <ID>  (2417) 


>  <MOLENAME>  (2417) 
AMLEXANOX

>  <therap>  (2417) 
anti-allergic

>  <ref>  (2417) 
Int Arch Allergy Appl Immunol 79:231 (1986); 82:66 (1987); J Oral Maxillofac Surg 51:243 (1993)

>  <cas#>  (2417) 
68302-57-8

>  <source>  (2417) 
synthetic; AA-673, CHX-3673

>  <status>  (2417) 
USAN, INN, BAN, JAN

>  <tradename>  (2417) 
APHTHAZOL

>  <SMILES>  (2417) 
CC(C)c1cc2c(cc1)oc1nc(N)c(C(=O)O)cc1c2=O

>  <standardized_failed>  (2417) 
False

$$$$

     RDKit          2D

  8  8  0  0  0  0  0  0  0  0999 V2000
    4.6042    0.1583    0.0000 C   0  0  0  0  0  0  0  0  0  0  0  0
    6.0292    0.1708    0.0000 O   0  0  0  0  0  0  0  0  0  0  0  0
    5.3167    0.5750    0.0000 C   0  0  0  0  0  0  0  0  0  0  0  0
    4.6042   -0.6667    0.0000 C   0  0  0  0  0  0  0  0  0  0  0  0
    3.8875    0.5708    0.0000 C   0  0  0  0  0  0  0  0  0  0  0  0
    3.8875   -1.0792    0.0000 C   0  0  0  0  0  0  0  0  0  0  0  0
    3.1750    0.1583    0.0000 C   0  0  0  0  0  0  0  0  0  0  0  0
    3.1750   -0.6667    0.0000 C   0  0  0  0  0  0  0  0  0  0  0  0
  2  3  1  0
  3  1  1  0
  4  1  2  0
  5  1  1  0
  6  4  1  0
  7  5  2  0
  8  7  1  0
  8  6  2  0
M  END
>  <ID>  (2418) 


>  <MOLENAME>  (2418) 
BENZYL ALCOHOL

>  <therap>  (2418) 
antimicrobial, antipruritic

>  <ref>  (2418) 
Arch Ind Hyg Occup Med 4:119 (1951)

>  <cas#>  (2418) 
100-51-6

>  <source>  (2418) 
synthetic

>  <status>  (2418) 
NF, INN, JAN

>  <tradename>  (2418) 
nan

>  <SMILES>  (2418) 
OCc1ccccc1

>  <standardized_failed>  (2418) 
False

$$$$

     RDKit          2D

 31 35  0  0  0  0  0  0  0  0999 V2000
    6.8167   -3.2125    0.0000 C   0  0  0  0  0  0  0  0  0  0  0  0
    6.0375   -3.4667    0.0000 C   0  0  0  0  0  0  0  0  0  0  0  0
    4.6042   -4.2917    0.0000 C   0  0  0  0  0  0  0  0  0  0  0  0
    6.0375   -4.2917    0.0000 C   0  0  0  0  0  0  0  0  0  0  0  0
    3.8917   -4.7042    0.0000 C   0  0  0  0  0  0  0  0  0  0  0  0
    5.3167   -4.7042    0.0000 C   0  0  0  0  0  0  0  0  0  0  0  0
    7.3042   -3.8792    0.0000 C   0  0  0  0  0  0  0  0  0  0  0  0
    3.8917   -5.5375    0.0000 C   0  0  0  0  0  0  0  0  0  0  0  0
    7.3042   -2.5417    0.0000 O   0  0  0  0  0  0  0  0  0  0  0  0
    4.6042   -3.4667    0.0000 C   0  0  0  0  0  0  0  0  0  0  0  0
    5.3167   -3.0542    0.0000 C   0  0  0  0  0  0  0  0  0  0  0  0
    8.0917   -2.8042    0.0000 C   0  0  0  0  0  0  0  0  0  0  0  0
    8.0917   -3.6167    0.0000 O   0  0  0  0  0  0  0  0  0  0  0  0
    6.8167   -4.5500    0.0000 C   0  0  0  0  0  0  0  0  0  0  0  0
    6.6667   -2.3375    0.0000 C   0  0  0  0  0  0  0  0  0  0  0  0
    3.1792   -5.9500    0.0000 C   0  0  0  0  0  0  0  0  0  0  0  0
    5.3167   -5.5375    0.0000 C   0  0  0  0  0  0  0  0  0  0  0  0
    3.1792   -4.2917    0.0000 C   0  0  0  0  0  0  0  0  0  0  0  0
    4.6042   -5.9500    0.0000 C   0  0  0  0  0  0  0  0  0  0  0  0
    2.4625   -5.5375    0.0000 C   0  0  0  0  0  0  0  0  0  0  0  0
    4.6125   -4.9625    0.0000 F   0  0  0  0  0  0  0  0  0  0  0  0
    5.7667   -2.1500    0.0000 O   0  0  0  0  0  0  0  0  0  0  0  0
    1.7417   -5.9542    0.0000 O   0  0  0  0  0  0  0  0  0  0  0  0
    6.0292   -2.6417    0.0000 C   0  0  0  0  0  0  0  0  0  0  0  0
    2.4625   -4.7042    0.0000 C   0  0  0  0  0  0  0  0  0  0  0  0
    3.8792   -3.0417    0.0000 O   0  0  0  0  0  0  0  0  0  0  0  0
    3.8875   -3.8792    0.0000 C   0  0  0  0  0  0  0  0  0  0  0  0
    6.8375   -1.5792    0.0000 C   0  0  0  0  0  0  0  0  0  0  0  0
    7.8250   -1.3667    0.0000 Cl  0  0  0  0  0  0  0  0  0  0  0  0
    8.3250   -1.9917    0.0000 C   0  0  0  0  0  0  0  0  0  0  0  0
    8.8542   -2.9000    0.0000 C   0  0  0  0  0  0  0  0  0  0  0  0
  2  1  1  0
  3 10  1  0
  4  2  1  0
  5  3  1  0
  6  4  1  0
  7  1  1  0
  8  5  1  0
  1  9  1  0
 10 11  1  0
 11  2  1  0
 12  9  1  0
  7 13  1  0
  7 14  1  6
  1 15  1  1
 16  8  2  0
 17  6  1  0
 18  5  1  0
 19 17  1  0
 20 25  1  0
 21  3  1  0
 22 15  2  0
 23 20  2  0
 24  2  1  0
 25 18  1  0
 26 10  1  0
 27  5  1  0
 28 15  1  0
 29 28  1  0
 30 12  1  0
 31 12  1  0
 14  4  1  0
 12 13  1  0
  3  6  1  0
 19  8  1  0
 20 16  1  0
M  END
>  <ID>  (2419) 


>  <MOLENAME>  (2419) 
HALCINONIDE

>  <therap>  (2419) 
glucocorticoid, antiinflammatory

>  <ref>  (2419) 
Pharmacol. Biochem. Prop. Drug Subst. (1977), 1, 215-31; J. Med. Chem. (1976), 19(5), 721-3; J. Invest. Dermatol. (1976), 66(3), 157-60

>  <cas#>  (2419) 
3093-35-4

>  <source>  (2419) 
synthetic; SQ-18566

>  <status>  (2419) 
USP, INN, BAN, JAN

>  <tradename>  (2419) 
HALOG

>  <SMILES>  (2419) 
CC1(C)O[C@@H]2CC3C4CCC5=CC(=O)CCC5(C)C4(F)C(O)CC3(C)[C@]2(C(=O)CCl)O1

>  <standardized_failed>  (2419) 
False

$$$$

     RDKit          2D

 30 33  0  0  0  0  0  0  0  0999 V2000
    4.0042   -4.4417    0.0000 C   0  0  0  0  0  0  0  0  0  0  0  0
    6.1500   -3.2042    0.0000 C   0  0  0  0  0  0  0  0  0  0  0  0
    4.0042   -5.2792    0.0000 C   0  0  0  0  0  0  0  0  0  0  0  0
    6.9292   -2.9542    0.0000 C   0  0  0  0  0  0  0  0  0  0  0  0
    4.7167   -4.0375    0.0000 C   0  0  0  0  0  0  0  0  0  0  0  0
    5.4292   -4.4417    0.0000 C   0  0  0  0  0  0  0  0  0  0  0  0
    6.1500   -4.0375    0.0000 C   0  0  0  0  0  0  0  0  0  0  0  0
    3.2917   -4.0375    0.0000 C   0  0  0  0  0  0  0  0  0  0  0  0
    5.4292   -2.7917    0.0000 C   0  0  0  0  0  0  0  0  0  0  0  0
    4.7167   -3.2042    0.0000 C   0  0  0  0  0  0  0  0  0  0  0  0
    5.4292   -5.2792    0.0000 C   0  0  0  0  0  0  0  0  0  0  0  0
    3.2917   -5.6917    0.0000 C   0  0  0  0  0  0  0  0  0  0  0  0
    4.7167   -5.6917    0.0000 C   0  0  0  0  0  0  0  0  0  0  0  0
    7.2667   -2.2000    0.0000 C   0  0  0  0  0  0  0  0  0  0  0  0
    7.4167   -3.6167    0.0000 C   0  0  0  0  0  0  0  0  0  0  0  0
    6.9292   -4.2917    0.0000 C   0  0  0  0  0  0  0  0  0  0  0  0
    2.5750   -4.4417    0.0000 C   0  0  0  0  0  0  0  0  0  0  0  0
    2.5750   -5.2792    0.0000 C   0  0  0  0  0  0  0  0  0  0  0  0
    9.2500   -1.2667    0.0000 C   0  0  0  0  0  0  0  0  0  0  0  0
    8.0917   -2.1125    0.0000 C   0  0  0  0  0  0  0  0  0  0  0  0
    6.7792   -1.5292    0.0000 O   0  0  0  0  0  0  0  0  0  0  0  0
    8.4292   -1.3542    0.0000 O   0  0  0  0  0  0  0  0  0  0  0  0
    9.5875   -0.5167    0.0000 O   0  0  0  0  0  0  0  0  0  0  0  0
    1.8542   -5.7000    0.0000 O   0  0  0  0  0  0  0  0  0  0  0  0
    7.7417   -3.0792    0.0000 O   0  0  0  0  0  0  0  0  0  0  0  0
    4.0042   -3.6167    0.0000 C   0  0  0  0  0  0  0  0  0  0  0  0
    6.1417   -2.4292    0.0000 C   0  0  0  0  0  0  0  0  0  0  0  0
    3.9917   -2.7792    0.0000 O   0  0  0  0  0  0  0  0  0  0  0  0
    4.7167   -6.5167    0.0000 C   0  0  0  0  0  0  0  0  0  0  0  0
    9.7375   -1.9417    0.0000 C   0  0  0  0  0  0  0  0  0  0  0  0
  2  9  1  0
  3  1  1  0
  4  2  1  0
  5  1  1  0
  6  5  1  0
  7  6  1  0
  8  1  1  0
  9 10  1  0
 10  5  1  0
 11  6  1  0
 12  3  2  0
 13  3  1  0
 14  4  1  0
 15 16  1  0
 16  7  1  0
 17  8  2  0
 18 17  1  0
 19 22  1  0
 20 14  1  0
 21 14  2  0
 22 20  1  0
 23 19  2  0
 24 18  2  0
  4 25  1  6
 26  1  1  0
 27  2  1  0
 10 28  1  1
 13 29  1  6
 30 19  1  0
 13 11  1  0
 18 12  1  0
  7  2  1  0
 15  4  1  0
M  END
>  <ID>  (2420) 


>  <MOLENAME>  (2420) 
6alpha-METHYLPREDNISOLONE ACETATE

>  <therap>  (2420) 
glucocorticoid

>  <ref>  (2420) 
Am J Vet Res 59:1619 (1998)

>  <cas#>  (2420) 
nan

>  <source>  (2420) 
semisynthetic

>  <status>  (2420) 
experimental

>  <tradename>  (2420) 
nan

>  <SMILES>  (2420) 
CC(=O)OCC(=O)[C@@]1(O)CCC2C3C[C@H](C)C4=CC(=O)C=CC4(C)C3[C@@H](O)CC21C

>  <standardized_failed>  (2420) 
False

$$$$

     RDKit          2D

 15 16  0  0  0  0  0  0  0  0999 V2000
    2.0667   -1.2542    0.0000 C   0  0  0  0  0  0  0  0  0  0  0  0
    2.0667   -0.4292    0.0000 C   0  0  0  0  0  0  0  0  0  0  0  0
    1.3625   -1.6667    0.0000 C   0  0  0  0  0  0  0  0  0  0  0  0
    1.3667   -2.4917    0.0000 O   0  0  0  0  0  0  0  0  0  0  0  0
    0.6500   -2.9042    0.0000 C   0  0  0  0  0  0  0  0  0  0  0  0
    2.7792   -1.6667    0.0000 N   0  0  0  0  0  0  0  0  0  0  0  0
    1.3625   -0.0167    0.0000 C   0  0  0  0  0  0  0  0  0  0  0  0
    0.6542   -1.2542    0.0000 C   0  0  0  0  0  0  0  0  0  0  0  0
    0.6500   -3.7292    0.0000 O   0  0  0  0  0  0  0  0  0  0  0  0
    0.6542   -0.4292    0.0000 C   0  0  0  0  0  0  0  0  0  0  0  0
    1.3625    0.8083    0.0000 Cl  0  0  0  0  0  0  0  0  0  0  0  0
    2.7875   -0.0167    0.0000 C   0  0  0  0  0  0  0  0  0  0  0  0
    3.5000   -1.2625    0.0000 C   0  0  0  0  0  0  0  0  0  0  0  0
   -0.0625   -2.4917    0.0000 C   0  0  0  0  0  0  0  0  0  0  0  0
    3.5000   -0.4375    0.0000 C   0  0  0  0  0  0  0  0  0  0  0  0
  2  1  1  0
  3  1  2  0
  4  3  1  0
  5  4  1  0
  6  1  1  0
  7  2  2  0
  8  3  1  0
  9  5  2  0
 10  8  2  0
 11  7  1  0
 12  2  1  0
 13  6  2  0
 14  5  1  0
 15 13  1  0
 15 12  2  0
 10  7  1  0
M  END
>  <ID>  (2421) 


>  <MOLENAME>  (2421) 
CHLOROACETOXYQUINOLINE

>  <therap>  (2421) 
antibacterial, antidiarrheal, promotes neovascularization, facin pathway enhancer 

>  <ref>  (2421) 
Disease Models Mech 6 (2013) doi:10.1242/dmm.008243

>  <cas#>  (2421) 
10173-02-1

>  <source>  (2421) 
synthetic;synthetic; S-604, CAC, AC1Q61B5

>  <status>  (2421) 
experimental

>  <tradename>  (2421) 
SILITAL

>  <SMILES>  (2421) 
CC(=O)Oc1c2ncccc2c(Cl)cc1

>  <standardized_failed>  (2421) 
False

$$$$

     RDKit          2D

 10  9  0  0  0  0  0  0  0  0999 V2000
    6.6917   -7.4542    0.0000 C   0  0  0  0  0  0  0  0  0  0  0  0
    4.9375   -7.4625    0.0000 C   0  0  0  0  0  0  0  0  0  0  0  0
    7.4042   -7.0417    0.0000 C   0  0  0  0  0  0  0  0  0  0  0  0
    5.9792   -7.0417    0.0000 C   0  0  0  0  0  0  0  0  0  0  0  0
    4.9125   -8.1792    0.0000 O   0  0  0  0  0  0  0  0  0  0  0  0
    7.4000   -6.2167    0.0000 O   0  0  0  0  0  0  0  0  0  0  0  0
    5.9542   -6.3792    0.0000 N   0  0  0  0  0  0  0  0  0  0  0  0
    4.2875   -7.0250    0.0000 O   0  0  0  0  0  0  0  0  0  0  0  0
    8.1167   -7.4500    0.0000 O   0  0  0  0  0  0  0  0  0  0  0  0
    5.2417   -5.9750    0.0000 C   0  0  0  0  0  0  0  0  0  0  0  0
  4  2  1  0
  3  1  1  0
  4  1  1  6
  5  2  2  0
  6  3  2  0
  7  4  1  0
  8  2  1  0
  9  3  1  0
 10  7  1  0
M  END
>  <ID>  (2422) 


>  <MOLENAME>  (2422) 
N-METHYL-D-ASPARTIC ACID

>  <therap>  (2422) 
NMDA agonist

>  <ref>  (2422) 
Chin Med J 113:948 (2000); Curr Opin Neurobiol. 11:327 (2001); Curr Opin Pharmacol 7: 39 (2007)

>  <cas#>  (2422) 
6384-92-5

>  <source>  (2422) 
synthetic

>  <status>  (2422) 
experimental

>  <tradename>  (2422) 
nan

>  <SMILES>  (2422) 
CN[C@H](CC(=O)O)C(=O)O

>  <standardized_failed>  (2422) 
False

$$$$

     RDKit          2D

 29 31  0  0  0  0  0  0  0  0999 V2000
    9.8542   -5.4000    0.0000 S   0  0  0  0  0  0  0  0  0  0  0  0
    5.3750   -6.3000    0.0000 C   0  0  0  0  0  0  0  0  0  0  0  0
    5.0125   -5.5292    0.0000 C   0  0  0  0  0  0  0  0  0  0  0  0
    4.2000   -7.1875    0.0000 S   0  0  0  0  0  0  0  0  0  0  0  0
    4.9917   -7.0500    0.0000 C   0  0  0  0  0  0  0  0  0  0  0  0
    5.5167   -4.8750    0.0000 N   0  0  0  0  0  0  0  0  0  0  0  0
    4.2167   -5.3792    0.0000 C   0  0  0  0  0  0  0  0  0  0  0  0
    3.7125   -6.7000    0.0000 C   0  0  0  0  0  0  0  0  0  0  0  0
    3.7042   -5.8750    0.0000 C   0  0  0  0  0  0  0  0  0  0  0  0
    6.5292   -3.5750    0.0000 N   0  0  0  0  0  0  0  0  0  0  0  0
    9.1375   -4.9875    0.0000 O   0  0  0  0  0  0  0  0  0  0  0  0
    9.8500   -4.5750    0.0000 O   0  0  0  0  0  0  0  0  0  0  0  0
    6.2042   -6.2542    0.0000 C   0  0  0  0  0  0  0  0  0  0  0  0
    5.2000   -4.1125    0.0000 C   0  0  0  0  0  0  0  0  0  0  0  0
    6.3375   -4.9875    0.0000 C   0  0  0  0  0  0  0  0  0  0  0  0
    5.4500   -7.7500    0.0000 C   0  0  0  0  0  0  0  0  0  0  0  0
   10.5667   -4.9875    0.0000 O   0  0  0  0  0  0  0  0  0  0  0  0
    5.7125   -3.4625    0.0000 C   0  0  0  0  0  0  0  0  0  0  0  0
    6.8375   -4.3417    0.0000 C   0  0  0  0  0  0  0  0  0  0  0  0
    6.6625   -6.9500    0.0000 C   0  0  0  0  0  0  0  0  0  0  0  0
    9.8500   -6.2250    0.0000 C   0  0  0  0  0  0  0  0  0  0  0  0
    7.4875   -6.9042    0.0000 S   0  0  0  0  0  0  0  0  0  0  0  0
    6.2875   -7.7000    0.0000 C   0  0  0  0  0  0  0  0  0  0  0  0
    7.0375   -2.9250    0.0000 C   0  0  0  0  0  0  0  0  0  0  0  0
    2.9917   -7.1167    0.0000 C   0  0  0  0  0  0  0  0  0  0  0  0
    2.9917   -5.4625    0.0000 C   0  0  0  0  0  0  0  0  0  0  0  0
    7.9375   -7.5917    0.0000 C   0  0  0  0  0  0  0  0  0  0  0  0
    2.2792   -5.8792    0.0000 C   0  0  0  0  0  0  0  0  0  0  0  0
    2.2792   -6.7042    0.0000 C   0  0  0  0  0  0  0  0  0  0  0  0
  3  2  1  0
  4  5  1  0
  5  2  2  0
  6  3  1  0
  7  3  1  0
  8  4  1  0
  9  7  1  0
 10 18  1  0
 11  1  2  0
 12  1  2  0
 13  2  1  0
 14  6  1  0
 15  6  1  0
 16  5  1  0
 17  1  1  0
 18 14  1  0
 19 15  1  0
 20 13  2  0
 21  1  1  0
 22 20  1  0
 23 16  2  0
 24 10  1  0
 25  8  2  0
 26  9  2  0
 27 22  1  0
 28 26  1  0
 29 25  1  0
 23 20  1  0
  8  9  1  0
 10 19  1  0
 28 29  2  0
M  END
>  <ID>  (2423) 


>  <MOLENAME>  (2423) 
METITEPINE MESYLATE

>  <therap>  (2423) 
5HT1&2 receptor antagonist

>  <ref>  (2423) 
Naunyn Schmiedebergs Arch Pharmacol 274:192 (1972); Pharmacol Biochem Behav 23:43 (1985)

>  <cas#>  (2423) 
20229-30-5

>  <source>  (2423) 
synthetic

>  <status>  (2423) 
INN

>  <tradename>  (2423) 
nan

>  <SMILES>  (2423) 
CSc1cc2c(cc1)Sc1ccccc1CC2N1CCN(C)CC1

>  <standardized_failed>  (2423) 
False

$$$$

     RDKit          2D

 27 30  0  0  0  0  0  0  0  0999 V2000
    5.5042   -7.7667    0.0000 C   0  0  0  0  0  0  0  0  0  0  0  0
    4.9542   -7.1542    0.0000 C   0  0  0  0  0  0  0  0  0  0  0  0
    5.1000   -8.4792    0.0000 N   0  0  0  0  0  0  0  0  0  0  0  0
    6.3125   -7.5917    0.0000 C   0  0  0  0  0  0  0  0  0  0  0  0
    7.6667   -8.0250    0.0000 C   0  0  0  0  0  0  0  0  0  0  0  0
    6.5667   -6.8042    0.0000 N   0  0  0  0  0  0  0  0  0  0  0  0
    8.2167   -8.6375    0.0000 C   0  0  0  0  0  0  0  0  0  0  0  0
    6.8667   -8.2000    0.0000 C   0  0  0  0  0  0  0  0  0  0  0  0
    4.2042   -7.4917    0.0000 C   0  0  0  0  0  0  0  0  0  0  0  0
    4.2917   -8.3042    0.0000 C   0  0  0  0  0  0  0  0  0  0  0  0
    7.9250   -7.2417    0.0000 C   0  0  0  0  0  0  0  0  0  0  0  0
    7.9667   -9.4250    0.0000 C   0  0  0  0  0  0  0  0  0  0  0  0
    7.3667   -6.6292    0.0000 C   0  0  0  0  0  0  0  0  0  0  0  0
    5.2125   -6.3750    0.0000 C   0  0  0  0  0  0  0  0  0  0  0  0
    6.0125   -6.2000    0.0000 C   0  0  0  0  0  0  0  0  0  0  0  0
    9.0167   -8.4667    0.0000 C   0  0  0  0  0  0  0  0  0  0  0  0
    7.1625   -9.6042    0.0000 O   0  0  0  0  0  0  0  0  0  0  0  0
    8.7292   -7.0750    0.0000 C   0  0  0  0  0  0  0  0  0  0  0  0
    9.2792   -7.6917    0.0000 C   0  0  0  0  0  0  0  0  0  0  0  0
    8.5167  -10.0292    0.0000 O   0  0  0  0  0  0  0  0  0  0  0  0
    9.5667   -9.0875    0.0000 O   0  0  0  0  0  0  0  0  0  0  0  0
    7.2875   -5.6667    0.0000 Cl  0  0  0  0  0  0  0  0  0  0  0  0
    3.4500   -7.1542    0.0000 C   0  0  0  0  0  0  0  0  0  0  0  0
    3.6167   -8.7917    0.0000 C   0  0  0  0  0  0  0  0  0  0  0  0
    9.3167   -9.8542    0.0000 C   0  0  0  0  0  0  0  0  0  0  0  0
    2.7792   -7.6417    0.0000 C   0  0  0  0  0  0  0  0  0  0  0  0
    2.8667   -8.4542    0.0000 C   0  0  0  0  0  0  0  0  0  0  0  0
  2  1  2  0
  3  1  1  0
  4  1  1  0
  5  8  1  1
  6  4  1  0
  7  5  1  0
  4  8  1  1
  9  2  1  0
 10  3  1  0
 11  5  1  0
  7 12  1  1
 13  6  1  0
 14  2  1  0
 15  6  1  0
 16  7  1  0
 17 12  2  0
 11 18  1  1
 19 18  1  0
 20 12  1  0
 16 21  1  6
 23  9  2  0
 24 10  2  0
 25 20  1  0
 26 23  1  0
 27 24  1  0
 10  9  1  0
 14 15  1  0
 11 13  1  0
 27 26  2  0
 19 16  1  0
M  END
>  <ID>  (2424) 


>  <MOLENAME>  (2424) 
RAUWOLSCINE HYDROCHLORIDE

>  <therap>  (2424) 
alpha2 adrenergic antagonist, CNS stimulant, anesthetic, 5HT2a/b antagonist

>  <ref>  (2424) 
Nature 177:1182 (1956); Eur J Pharmacol 76:461 (1981); Archives of Pharmacol 323:149 (1983); Naunyn Schmied Arch Pharmacol 323:149 (1983)

>  <cas#>  (2424) 
6211-32-1

>  <source>  (2424) 
Rauwolfia, Aspidosperma and Vinca spp

>  <status>  (2424) 
experimental

>  <tradename>  (2424) 
nan

>  <SMILES>  (2424) 
COC(=O)[C@@H]1[C@@H](O)CC[C@@H]2CN3CCc4c([nH]c5ccccc45)[C@@H]3C[C@@H]21

>  <standardized_failed>  (2424) 
False

$$$$

     RDKit          2D

 18 20  0  0  0  0  0  0  0  0999 V2000
    1.4542   -5.1500    0.0000 C   0  0  0  0  0  0  0  0  0  0  0  0
    1.0667   -4.4167    0.0000 O   0  0  0  0  0  0  0  0  0  0  0  0
    0.2417   -4.7542    0.0000 C   0  0  0  0  0  0  0  0  0  0  0  0
    2.4875   -4.6792    0.0000 C   0  0  0  0  0  0  0  0  0  0  0  0
    3.0417   -5.3000    0.0000 O   0  0  0  0  0  0  0  0  0  0  0  0
    3.7875   -4.9667    0.0000 C   0  0  0  0  0  0  0  0  0  0  0  0
    3.7042   -4.1417    0.0000 C   0  0  0  0  0  0  0  0  0  0  0  0
    2.9000   -3.9667    0.0000 C   0  0  0  0  0  0  0  0  0  0  0  0
    2.5917   -3.2000    0.0000 C   0  0  0  0  0  0  0  0  0  0  0  0
    4.5000   -5.3917    0.0000 O   0  0  0  0  0  0  0  0  0  0  0  0
    1.1667   -3.2292    0.0000 C   0  0  0  0  0  0  0  0  0  0  0  0
    4.3250   -3.5917    0.0000 C   0  0  0  0  0  0  0  0  0  0  0  0
    0.4375   -2.8292    0.0000 C   0  0  0  0  0  0  0  0  0  0  0  0
    1.8750   -2.8042    0.0000 C   0  0  0  0  0  0  0  0  0  0  0  0
   -0.2500   -4.0917    0.0000 C   0  0  0  0  0  0  0  0  0  0  0  0
   -0.3208   -5.3542    0.0000 C   0  0  0  0  0  0  0  0  0  0  0  0
   -0.2708   -3.2625    0.0000 C   0  0  0  0  0  0  0  0  0  0  0  0
    1.4917   -3.9000    0.0000 C   0  0  0  0  0  0  0  0  0  0  0  0
  2  1  1  0
  3  1  1  0
  4  1  1  0
  4  5  1  6
  6  5  1  0
  8  7  1  0
  8  4  1  0
  8  9  1  1
 10  6  2  0
 11 14  1  0
 12  7  2  0
 13 17  1  0
 14  9  1  0
 15  3  1  0
  3 16  1  1
 17 15  1  0
 18 11  1  0
  3  2  1  0
  6  7  1  0
 11 13  2  0
M  END
>  <ID>  (2425) 


>  <MOLENAME>  (2425) 
PARTHENOLIDE

>  <therap>  (2425) 
5HT antagonist, antineoplastic, smooth muscle relaxant 

>  <ref>  (2425) 
Tetrahedron 21:1509 (1965); Phytochemistry 17:957 (1978); 39:839 (1995); Br J Pharmacol 112:9 (1994) 

>  <cas#>  (2425) 
20554-84-1

>  <source>  (2425) 
Chrysanthemum parthenium, Michelia champaca

>  <status>  (2425) 
experimental

>  <tradename>  (2425) 
nan

>  <SMILES>  (2425) 
C=C1C(=O)O[C@@H]2C3O[C@@]3(C)CC/C=C(\C)CC[C@@H]12

>  <standardized_failed>  (2425) 
False

$$$$

     RDKit          2D

 19 20  0  0  0  0  0  0  0  0999 V2000
    3.4167   -2.7917    0.0000 C   0  0  0  0  0  0  0  0  0  0  0  0
    4.1375   -3.2042    0.0000 C   0  0  0  0  0  0  0  0  0  0  0  0
    2.7042   -3.2125    0.0000 C   0  0  0  0  0  0  0  0  0  0  0  0
    1.2792   -4.0417    0.0000 C   0  0  0  0  0  0  0  0  0  0  0  0
    1.9917   -4.4542    0.0000 C   0  0  0  0  0  0  0  0  0  0  0  0
    1.2792   -3.2125    0.0000 C   0  0  0  0  0  0  0  0  0  0  0  0
    4.8500   -2.7917    0.0000 C   0  0  0  0  0  0  0  0  0  0  0  0
    1.9917   -2.8000    0.0000 C   0  0  0  0  0  0  0  0  0  0  0  0
    2.7042   -4.0417    0.0000 C   0  0  0  0  0  0  0  0  0  0  0  0
    6.2750   -1.9625    0.0000 C   0  0  0  0  0  0  0  0  0  0  0  0
    5.5625   -3.2042    0.0000 C   0  0  0  0  0  0  0  0  0  0  0  0
    4.8417   -1.9667    0.0000 C   0  0  0  0  0  0  0  0  0  0  0  0
    5.5500   -1.5542    0.0000 C   0  0  0  0  0  0  0  0  0  0  0  0
    6.2750   -2.7875    0.0000 C   0  0  0  0  0  0  0  0  0  0  0  0
    0.5667   -2.8042    0.0000 O   0  0  0  0  0  0  0  0  0  0  0  0
    1.9917   -5.2792    0.0000 O   0  0  0  0  0  0  0  0  0  0  0  0
    6.9875   -1.5417    0.0000 O   0  0  0  0  0  0  0  0  0  0  0  0
    0.5667   -1.9792    0.0000 C   0  0  0  0  0  0  0  0  0  0  0  0
    2.7042   -5.6917    0.0000 C   0  0  0  0  0  0  0  0  0  0  0  0
  2  1  2  0
  3  1  1  0
  4  5  2  0
  5  9  1  0
  6  8  2  0
  7  2  1  0
  8  3  1  0
  9  3  2  0
 10 13  2  0
 11  7  1  0
 12  7  2  0
 13 12  1  0
 14 11  2  0
 15  6  1  0
 16  5  1  0
 17 10  1  0
 18 15  1  0
 19 16  1  0
  6  4  1  0
 14 10  1  0
M  END
>  <ID>  (2426) 


>  <MOLENAME>  (2426) 
PTEROSTILBENE

>  <therap>  (2426) 
antifungal

>  <ref>  (2426) 
Phytochemistry 11:881 (1972); J Nat Prod 47:179 (1981); BMC Med Genomics 1:7 (2008)

>  <cas#>  (2426) 
537-42-8

>  <source>  (2426) 
Pterocarpus, Vitis and Vaccinium spp

>  <status>  (2426) 
experimental

>  <tradename>  (2426) 
nan

>  <SMILES>  (2426) 
COc1cc(/C=C/c2ccc(O)cc2)cc(OC)c1

>  <standardized_failed>  (2426) 
False

$$$$

     RDKit          2D

 10 10  0  0  0  0  0  0  0  0999 V2000
    5.3792    0.2917    0.0000 O   0  0  0  0  0  0  0  0  0  0  0  0
    4.6625    0.7000    0.0000 C   0  0  0  0  0  0  0  0  0  0  0  0
    3.9500    0.2833    0.0000 C   0  0  0  0  0  0  0  0  0  0  0  0
    2.5208   -0.5458    0.0000 C   0  0  0  0  0  0  0  0  0  0  0  0
    3.9500   -0.5458    0.0000 C   0  0  0  0  0  0  0  0  0  0  0  0
    3.2333    0.6958    0.0000 C   0  0  0  0  0  0  0  0  0  0  0  0
    3.2333   -0.9583    0.0000 C   0  0  0  0  0  0  0  0  0  0  0  0
    2.5208    0.2833    0.0000 C   0  0  0  0  0  0  0  0  0  0  0  0
    1.8042   -0.9583    0.0000 O   0  0  0  0  0  0  0  0  0  0  0  0
    1.0042   -0.7417    0.0000 C   0  0  0  0  0  0  0  0  0  0  0  0
  2  1  2  0
  3  2  1  0
  4  7  2  0
  5  3  2  0
  6  3  1  0
  7  5  1  0
  8  6  2  0
  9  4  1  0
 10  9  1  0
  4  8  1  0
M  END
>  <ID>  (2427) 


>  <MOLENAME>  (2427) 
4-ANISALDEHYDE

>  <therap>  (2427) 
perfumery

>  <ref>  (2427) 
J Chem Soc 1932:2795; JACS 63:1462 (1941); Food Cosmet Toxicol 2:327 (1964)

>  <cas#>  (2427) 
123-11-5

>  <source>  (2427) 
Lentinus and Polyporus spp

>  <status>  (2427) 
experimental

>  <tradename>  (2427) 
AUBEPINE

>  <SMILES>  (2427) 
COc1ccc(C=O)cc1

>  <standardized_failed>  (2427) 
False

$$$$

     RDKit          2D

 12 11  0  0  0  0  0  0  0  0999 V2000
    3.9792   -1.6542    0.0000 C   0  0  0  0  0  0  0  0  0  0  0  0
    5.4042   -1.6542    0.0000 C   0  0  0  0  0  0  0  0  0  0  0  0
    4.6917   -1.2417    0.0000 C   0  0  0  0  0  0  0  0  0  0  0  0
    3.2667   -1.2417    0.0000 F   0  0  0  0  0  0  0  0  0  0  0  0
    6.1167   -1.2417    0.0000 F   0  0  0  0  0  0  0  0  0  0  0  0
    5.4042   -2.4792    0.0000 F   0  0  0  0  0  0  0  0  0  0  0  0
    6.1167   -2.0667    0.0000 F   0  0  0  0  0  0  0  0  0  0  0  0
    3.9792   -2.4792    0.0000 F   0  0  0  0  0  0  0  0  0  0  0  0
    3.2667   -2.0625    0.0000 F   0  0  0  0  0  0  0  0  0  0  0  0
    4.6917   -0.4167    0.0000 O   0  0  0  0  0  0  0  0  0  0  0  0
    5.4042   -0.0042    0.0000 C   0  0  0  0  0  0  0  0  0  0  0  0
    5.4042    0.8208    0.0000 F   0  0  0  0  0  0  0  0  0  0  0  0
  2  3  1  0
  3  1  1  0
  4  1  1  0
  5  2  1  0
  6  2  1  0
  7  2  1  0
  8  1  1  0
  9  1  1  0
 10  3  1  0
 11 10  1  0
 12 11  1  0
M  END
>  <ID>  (2428) 


>  <MOLENAME>  (2428) 
SEVOFLURANE

>  <therap>  (2428) 
anesthetic

>  <ref>  (2428) 
Aneth Analg 66:769 (1987); Anesthesiology 66:301 (1987); 70:360 (1989)

>  <cas#>  (2428) 
28523-86-6

>  <source>  (2428) 
synthetic; MR-6-S4

>  <status>  (2428) 
USAN, INN, BAN, JAN

>  <tradename>  (2428) 
ULTANE

>  <SMILES>  (2428) 
FCOC(C(F)(F)F)C(F)(F)F

>  <standardized_failed>  (2428) 
False

$$$$

     RDKit          2D

 21 23  0  0  0  0  0  0  0  0999 V2000
    6.8542   -2.5375    0.0000 C   0  0  0  0  0  0  0  0  0  0  0  0
    6.1417   -2.9542    0.0000 C   0  0  0  0  0  0  0  0  0  0  0  0
    5.4292   -2.5417    0.0000 C   0  0  0  0  0  0  0  0  0  0  0  0
    6.8542   -1.7042    0.0000 C   0  0  0  0  0  0  0  0  0  0  0  0
    6.1375   -1.3000    0.0000 O   0  0  0  0  0  0  0  0  0  0  0  0
    5.4292   -1.7167    0.0000 C   0  0  0  0  0  0  0  0  0  0  0  0
    4.7125   -2.9542    0.0000 C   0  0  0  0  0  0  0  0  0  0  0  0
    4.7125   -1.3042    0.0000 C   0  0  0  0  0  0  0  0  0  0  0  0
    4.0000   -2.5417    0.0000 C   0  0  0  0  0  0  0  0  0  0  0  0
    6.1417   -3.7792    0.0000 O   0  0  0  0  0  0  0  0  0  0  0  0
    7.5625   -1.2917    0.0000 C   0  0  0  0  0  0  0  0  0  0  0  0
    4.0000   -1.7167    0.0000 C   0  0  0  0  0  0  0  0  0  0  0  0
    7.5750   -2.9417    0.0000 O   0  0  0  0  0  0  0  0  0  0  0  0
    4.7167   -3.7792    0.0000 O   0  0  0  0  0  0  0  0  0  0  0  0
    3.2875   -1.3042    0.0000 O   0  0  0  0  0  0  0  0  0  0  0  0
    8.2792   -1.7042    0.0000 C   0  0  0  0  0  0  0  0  0  0  0  0
    7.5542   -0.4667    0.0000 C   0  0  0  0  0  0  0  0  0  0  0  0
    3.2792   -0.4792    0.0000 C   0  0  0  0  0  0  0  0  0  0  0  0
    8.9917   -1.2875    0.0000 C   0  0  0  0  0  0  0  0  0  0  0  0
    8.2667   -0.0542    0.0000 C   0  0  0  0  0  0  0  0  0  0  0  0
    8.9875   -0.4625    0.0000 C   0  0  0  0  0  0  0  0  0  0  0  0
  2  1  1  0
  3  2  1  0
  4  1  2  0
  5  4  1  0
  6  5  1  0
  7  3  2  0
  8  6  2  0
  9  7  1  0
 10  2  2  0
 11  4  1  0
 12  8  1  0
 13  1  1  0
 14  7  1  0
 15 12  1  0
 16 11  2  0
 17 11  1  0
 18 15  1  0
 19 16  1  0
 20 17  2  0
 21 20  1  0
  3  6  1  0
 21 19  2  0
  9 12  2  0
M  END
>  <ID>  (2429) 


>  <MOLENAME>  (2429) 
IZALPININ

>  <therap>  (2429) 
nan

>  <ref>  (2429) 
Phytochemistry 15:572 (1976)

>  <cas#>  (2429) 
480-14-4

>  <source>  (2429) 
Alpinia & Populus spp

>  <status>  (2429) 
undetermined activity

>  <tradename>  (2429) 
nan

>  <SMILES>  (2429) 
COc1cc(O)c2c(=O)c(O)c(-c3ccccc3)oc2c1

>  <standardized_failed>  (2429) 
False

$$$$

     RDKit          2D

 21 23  0  0  0  0  0  0  0  0999 V2000
    6.8542   -2.6750    0.0000 C   0  0  0  0  0  0  0  0  0  0  0  0
    6.1417   -3.0917    0.0000 C   0  0  0  0  0  0  0  0  0  0  0  0
    5.4292   -2.6792    0.0000 C   0  0  0  0  0  0  0  0  0  0  0  0
    6.8542   -1.8417    0.0000 C   0  0  0  0  0  0  0  0  0  0  0  0
    6.1375   -1.4375    0.0000 O   0  0  0  0  0  0  0  0  0  0  0  0
    5.4292   -1.8542    0.0000 C   0  0  0  0  0  0  0  0  0  0  0  0
    4.7125   -3.0917    0.0000 C   0  0  0  0  0  0  0  0  0  0  0  0
    4.7125   -1.4417    0.0000 C   0  0  0  0  0  0  0  0  0  0  0  0
    4.0000   -2.6792    0.0000 C   0  0  0  0  0  0  0  0  0  0  0  0
    6.1417   -3.9167    0.0000 O   0  0  0  0  0  0  0  0  0  0  0  0
    4.0000   -1.8542    0.0000 C   0  0  0  0  0  0  0  0  0  0  0  0
    7.5625   -1.4292    0.0000 C   0  0  0  0  0  0  0  0  0  0  0  0
    7.5750   -3.0792    0.0000 O   0  0  0  0  0  0  0  0  0  0  0  0
    4.7167   -3.9167    0.0000 O   0  0  0  0  0  0  0  0  0  0  0  0
    3.2875   -1.4417    0.0000 O   0  0  0  0  0  0  0  0  0  0  0  0
    8.2792   -1.8417    0.0000 C   0  0  0  0  0  0  0  0  0  0  0  0
    7.5542   -0.6042    0.0000 C   0  0  0  0  0  0  0  0  0  0  0  0
    8.2792   -2.6667    0.0000 C   0  0  0  0  0  0  0  0  0  0  0  0
    8.9917   -1.4250    0.0000 C   0  0  0  0  0  0  0  0  0  0  0  0
    8.2667   -0.1917    0.0000 C   0  0  0  0  0  0  0  0  0  0  0  0
    8.9875   -0.6000    0.0000 C   0  0  0  0  0  0  0  0  0  0  0  0
  2  1  1  0
  3  2  1  0
  4  1  2  0
  5  4  1  0
  6  5  1  0
  7  3  2  0
  8  6  2  0
  9  7  1  0
 10  2  2  0
 11  8  1  0
 12  4  1  0
 13  1  1  0
 14  7  1  0
 15 11  1  0
 16 12  2  0
 17 12  1  0
 18 13  1  0
 19 16  1  0
 20 17  2  0
 21 20  1  0
  3  6  1  0
 21 19  2  0
  9 11  2  0
M  END
>  <ID>  (2430) 


>  <MOLENAME>  (2430) 
GALANGIN 3-O-METHYL ETHER

>  <therap>  (2430) 
nan

>  <ref>  (2430) 
nan

>  <cas#>  (2430) 
6665-74-3

>  <source>  (2430) 
Populus nigra

>  <status>  (2430) 
undetermined activity

>  <tradename>  (2430) 
nan

>  <SMILES>  (2430) 
COc1c(-c2ccccc2)oc2cc(O)cc(O)c2c1=O

>  <standardized_failed>  (2430) 
False

$$$$

     RDKit          2D

 14 15  0  0  0  0  0  0  0  0999 V2000
    2.4750    0.9292    0.0000 C   0  0  0  0  0  0  0  0  0  0  0  0
    2.4708    1.7583    0.0000 C   0  0  0  0  0  0  0  0  0  0  0  0
    1.7542    2.1667    0.0000 C   0  0  0  0  0  0  0  0  0  0  0  0
    1.7625    0.5125    0.0000 C   0  0  0  0  0  0  0  0  0  0  0  0
    1.0458    1.7500    0.0000 C   0  0  0  0  0  0  0  0  0  0  0  0
    1.0458    0.9250    0.0000 C   0  0  0  0  0  0  0  0  0  0  0  0
    1.7500    2.9917    0.0000 O   0  0  0  0  0  0  0  0  0  0  0  0
    1.7625   -0.3125    0.0000 O   0  0  0  0  0  0  0  0  0  0  0  0
    3.1833    2.1750    0.0000 O   0  0  0  0  0  0  0  0  0  0  0  0
    0.3292    2.1625    0.0000 C   0  0  0  0  0  0  0  0  0  0  0  0
    0.3292    0.5083    0.0000 C   0  0  0  0  0  0  0  0  0  0  0  0
    3.9000    1.7667    0.0000 C   0  0  0  0  0  0  0  0  0  0  0  0
   -0.3833    1.7500    0.0000 C   0  0  0  0  0  0  0  0  0  0  0  0
   -0.3833    0.9208    0.0000 C   0  0  0  0  0  0  0  0  0  0  0  0
  2  1  2  0
  3  2  1  0
  4  1  1  0
  5  3  1  0
  6  4  1  0
  7  3  2  0
  8  4  2  0
  9  2  1  0
 10  5  2  0
 11  6  2  0
 12  9  1  0
 13 10  1  0
 14 11  1  0
  6  5  1  0
 14 13  2  0
M  END
>  <ID>  (2431) 


>  <MOLENAME>  (2431) 
LAWSONE METHYL ETHER

>  <therap>  (2431) 
antifungal

>  <ref>  (2431) 
Pharmaceut Biol 40:429 (2002); J Oral Pathol Med 40:90 (2011)

>  <cas#>  (2431) 
2348-82-5

>  <source>  (2431) 
Impatiens balsamina, Gentianaceae

>  <status>  (2431) 
experimental

>  <tradename>  (2431) 
nan

>  <SMILES>  (2431) 
COC1=CC(=O)c2ccccc2C1=O

>  <standardized_failed>  (2431) 
False

$$$$

     RDKit          2D

 20 23  0  0  0  0  0  0  0  0999 V2000
    5.4875   -0.7667    0.0000 N   0  0  0  0  0  0  0  0  0  0  0  0
    4.7875   -1.0917    0.0000 C   0  0  0  0  0  0  0  0  0  0  0  0
    6.1667   -1.1167    0.0000 C   0  0  0  0  0  0  0  0  0  0  0  0
    5.8417   -2.2792    0.0000 N   0  0  0  0  0  0  0  0  0  0  0  0
    4.6500   -1.8125    0.0000 C   0  0  0  0  0  0  0  0  0  0  0  0
    5.0917   -2.2792    0.0000 C   0  0  0  0  0  0  0  0  0  0  0  0
    6.2792   -1.8292    0.0000 C   0  0  0  0  0  0  0  0  0  0  0  0
    5.5042   -0.0000    0.0000 C   0  0  0  0  0  0  0  0  0  0  0  0
    6.7292   -0.6542    0.0000 N   0  0  0  0  0  0  0  0  0  0  0  0
    5.9000    0.6500    0.0000 C   0  0  0  0  0  0  0  0  0  0  0  0
    5.1375    0.6708    0.0000 C   0  0  0  0  0  0  0  0  0  0  0  0
    4.2292   -0.6125    0.0000 N   0  0  0  0  0  0  0  0  0  0  0  0
    4.7667   -3.0375    0.0000 O   0  0  0  0  0  0  0  0  0  0  0  0
    6.9625   -2.0917    0.0000 C   0  0  0  0  0  0  0  0  0  0  0  0
    3.9542   -2.0500    0.0000 C   0  0  0  0  0  0  0  0  0  0  0  0
    7.4042   -0.9125    0.0000 C   0  0  0  0  0  0  0  0  0  0  0  0
    3.5417   -0.8542    0.0000 C   0  0  0  0  0  0  0  0  0  0  0  0
    7.5292   -1.6292    0.0000 C   0  0  0  0  0  0  0  0  0  0  0  0
    7.0792   -2.8042    0.0000 C   0  0  0  0  0  0  0  0  0  0  0  0
    3.4042   -1.5750    0.0000 C   0  0  0  0  0  0  0  0  0  0  0  0
  2  1  1  0
  3  1  1  0
  4  7  1  0
  5  2  2  0
  6  5  1  0
  7  3  2  0
  8  1  1  0
  9  3  1  0
 10  8  1  0
 11  8  1  0
 12  2  1  0
 13  6  2  0
 14  7  1  0
 15  5  1  0
 16  9  2  0
 17 12  2  0
 18 16  1  0
 19 14  1  0
 20 17  1  0
 11 10  1  0
  6  4  1  0
 14 18  2  0
 20 15  2  0
M  END
>  <ID>  (2432) 


>  <MOLENAME>  (2432) 
NEVIRAPINE

>  <therap>  (2432) 
antiviral, RT inhibitor

>  <ref>  (2432) 
J. Med. Chem. (1991), 34(7), 2231-41; J. Infect. Dis. (1991), 163(5), 966-70; Science (1990), 250(4986), 1411-13

>  <cas#>  (2432) 
129618-40-2

>  <source>  (2432) 
synthetic; BIRG-0587

>  <status>  (2432) 
USP, INN, BAN

>  <tradename>  (2432) 
VIRAMUNE

>  <SMILES>  (2432) 
Cc1ccnc2c1NC(=O)c1c(nccc1)N2C1CC1

>  <standardized_failed>  (2432) 
False

$$$$

     RDKit          2D

 36 39  0  0  0  0  0  0  0  0999 V2000
    1.9625   -1.8417    0.0000 C   0  0  0  0  0  0  0  0  0  0  0  0
    1.9625   -1.0167    0.0000 C   0  0  0  0  0  0  0  0  0  0  0  0
    0.5292   -1.0167    0.0000 N   0  0  0  0  0  0  0  0  0  0  0  0
    2.7417   -2.1000    0.0000 N   0  0  0  0  0  0  0  0  0  0  0  0
    3.2292   -1.4292    0.0000 C   0  0  0  0  0  0  0  0  0  0  0  0
    1.2417   -2.2542    0.0000 N   0  0  0  0  0  0  0  0  0  0  0  0
    0.5292   -1.8417    0.0000 C   0  0  0  0  0  0  0  0  0  0  0  0
    1.2417   -0.6042    0.0000 C   0  0  0  0  0  0  0  0  0  0  0  0
    2.7417   -0.7667    0.0000 N   0  0  0  0  0  0  0  0  0  0  0  0
    4.0542   -1.4292    0.0000 N   0  0  0  0  0  0  0  0  0  0  0  0
   -0.8958   -1.0167    0.0000 C   0  0  0  0  0  0  0  0  0  0  0  0
   -0.8958   -1.8417    0.0000 N   0  0  0  0  0  0  0  0  0  0  0  0
   -1.6125   -0.6125    0.0000 N   0  0  0  0  0  0  0  0  0  0  0  0
   -0.1833   -0.6042    0.0000 C   0  0  0  0  0  0  0  0  0  0  0  0
   -1.6083   -2.2667    0.0000 C   0  0  0  0  0  0  0  0  0  0  0  0
   -2.3208   -1.8542    0.0000 C   0  0  0  0  0  0  0  0  0  0  0  0
   -2.3208   -1.0292    0.0000 C   0  0  0  0  0  0  0  0  0  0  0  0
    3.8042    0.1958    0.0000 C   0  0  0  0  0  0  0  0  0  0  0  0
    4.5917    0.4083    0.0000 C   0  0  0  0  0  0  0  0  0  0  0  0
   -0.1833   -2.2542    0.0000 O   0  0  0  0  0  0  0  0  0  0  0  0
    1.2417    0.2208    0.0000 O   0  0  0  0  0  0  0  0  0  0  0  0
    4.4625   -2.1417    0.0000 C   0  0  0  0  0  0  0  0  0  0  0  0
    2.9917    0.0208    0.0000 C   0  0  0  0  0  0  0  0  0  0  0  0
    1.2375   -3.0792    0.0000 C   0  0  0  0  0  0  0  0  0  0  0  0
    4.4542   -0.7125    0.0000 C   0  0  0  0  0  0  0  0  0  0  0  0
    5.2875   -2.1417    0.0000 C   0  0  0  0  0  0  0  0  0  0  0  0
    5.6917   -2.8542    0.0000 N   0  0  0  0  0  0  0  0  0  0  0  0
    4.3292   -3.5250    0.0000 Cl  0  0  0  0  0  0  0  0  0  0  0  0
   -1.6083   -3.0917    0.0000 C   0  0  0  0  0  0  0  0  0  0  0  0
   -3.0375   -2.2667    0.0000 C   0  0  0  0  0  0  0  0  0  0  0  0
    5.3917    0.6333    0.0000 C   0  0  0  0  0  0  0  0  0  0  0  0
    5.2875   -0.7167    0.0000 C   0  0  0  0  0  0  0  0  0  0  0  0
   -3.0375   -0.6167    0.0000 C   0  0  0  0  0  0  0  0  0  0  0  0
    5.7000   -1.4292    0.0000 C   0  0  0  0  0  0  0  0  0  0  0  0
   -3.7500   -1.8542    0.0000 C   0  0  0  0  0  0  0  0  0  0  0  0
   -3.7500   -1.0292    0.0000 C   0  0  0  0  0  0  0  0  0  0  0  0
  2  1  2  0
  3  7  1  0
  4  1  1  0
  5  4  2  0
  6  1  1  0
  7  6  1  0
  8  2  1  0
  9  2  1  0
 10  5  1  0
 11 14  1  0
 12 11  2  0
 13 11  1  0
 14  3  1  0
 15 12  1  0
 16 17  1  0
 17 13  2  0
 18 23  1  0
 19 18  3  0
 20  7  2  0
 21  8  2  0
 22 10  1  0
 23  9  1  0
 24  6  1  0
 25 10  1  0
 26 22  1  0
 26 27  1  1
 29 15  1  0
 30 16  1  0
 31 19  1  0
 32 25  1  0
 33 17  1  0
 34 32  1  0
 35 30  2  0
 36 33  2  0
  5  9  1  0
  3  8  1  0
 26 34  1  0
 15 16  2  0
 36 35  1  0
M  END
>  <ID>  (2433) 


>  <MOLENAME>  (2433) 
LINAGLIPTIN HYDROCHLORIDE

>  <therap>  (2433) 
dipeptidypeptidase inhibitor, antidiabetic

>  <ref>  (2433) 
J Med Chem 50:6450 (2007); J Pharm Pharmacol 61:55 (2009); Drug Metab Disp 38:667 (2010)

>  <cas#>  (2433) 
668270-12-0

>  <source>  (2433) 
synthetic; BI-1356

>  <status>  (2433) 
USAN, INN

>  <tradename>  (2433) 
TRADJENTA

>  <SMILES>  (2433) 
CC#CCn1c(N2CCC[C@@H](N)C2)nc2c1c(=O)n(Cc1nc(C)c3ccccc3n1)c(=O)n2C

>  <standardized_failed>  (2433) 
False

$$$$

     RDKit          2D

 24 23  0  0  0  0  0  0  0  0999 V2000
    3.3792   -6.5125    0.0000 C   0  0  0  0  0  0  0  0  0  0  0  0
    3.3792   -7.3375    0.0000 O   0  0  0  0  0  0  0  0  0  0  0  0
    1.2417   -5.2667    0.0000 C   0  0  0  0  0  0  0  0  0  0  0  0
    1.2417   -1.1417    0.0000 C   0  0  0  0  0  0  0  0  0  0  0  0
    3.3792   -1.5542    0.0000 C   0  0  0  0  0  0  0  0  0  0  0  0
    2.6667   -1.1417    0.0000 C   0  0  0  0  0  0  0  0  0  0  0  0
    4.1000   -2.7875    0.0000 C   0  0  0  0  0  0  0  0  0  0  0  0
    4.1042   -3.6125    0.0000 C   0  0  0  0  0  0  0  0  0  0  0  0
    1.9625   -4.0292    0.0000 C   0  0  0  0  0  0  0  0  0  0  0  0
    2.6750   -3.6250    0.0000 C   0  0  0  0  0  0  0  0  0  0  0  0
    1.2417   -0.3167    0.0000 C   0  0  0  0  0  0  0  0  0  0  0  0
    1.9542    0.9208    0.0000 C   0  0  0  0  0  0  0  0  0  0  0  0
    2.6667    1.3333    0.0000 C   0  0  0  0  0  0  0  0  0  0  0  0
    1.2375   -6.0917    0.0000 C   0  0  0  0  0  0  0  0  0  0  0  0
    4.0917   -6.1042    0.0000 O   0  0  0  0  0  0  0  0  0  0  0  0
    1.9542   -1.5542    0.0000 C   0  0  0  0  0  0  0  0  0  0  0  0
    3.3917   -4.0292    0.0000 C   0  0  0  0  0  0  0  0  0  0  0  0
    1.9542    0.0958    0.0000 C   0  0  0  0  0  0  0  0  0  0  0  0
    1.9542   -4.8542    0.0000 C   0  0  0  0  0  0  0  0  0  0  0  0
    3.3792   -2.3792    0.0000 C   0  0  0  0  0  0  0  0  0  0  0  0
    2.6667   -6.0917    0.0000 C   0  0  0  0  0  0  0  0  0  0  0  0
    1.9542   -6.5042    0.0000 C   0  0  0  0  0  0  0  0  0  0  0  0
    3.3792    0.9208    0.0000 C   0  0  0  0  0  0  0  0  0  0  0  0
    4.1000    1.3333    0.0000 C   0  0  0  0  0  0  0  0  0  0  0  0
  2  1  2  0
  3 14  2  0
  4 16  1  0
  5 20  1  0
  6  5  2  0
  7  8  2  0
  8 17  1  0
  9 19  1  0
 10  9  2  0
 11  4  2  0
 12 18  1  0
 13 12  2  0
 14 22  1  0
 15  1  1  0
 16  6  1  0
 17 10  1  0
 18 11  1  0
 19  3  1  0
 20  7  1  0
 21  1  1  0
 22 21  1  0
 23 13  1  0
 24 23  1  0
M  END
>  <ID>  (2434) 


>  <MOLENAME>  (2434) 
DOCONEXENT

>  <therap>  (2434) 
PAF inhibitor

>  <ref>  (2434) 
Neurosci Biobehav Rev 16:193 (1992); J Ocul Pharmacol  10:591 (1994);  Lipids 31:115 (1996)

>  <cas#>  (2434) 
6217-54-5

>  <source>  (2434) 
Sardinia ocelata oil

>  <status>  (2434) 
INN, BAN

>  <tradename>  (2434) 
DHA

>  <SMILES>  (2434) 
CC/C=C\C/C=C\C/C=C\C/C=C\C/C=C\C/C=C\CCC(=O)O

>  <standardized_failed>  (2434) 
False

$$$$

     RDKit          2D

 14 13  0  0  0  0  0  0  0  0999 V2000
    2.4417   -2.3417    0.0000 C   0  0  0  0  0  0  0  0  0  0  0  0
    3.2667   -2.3417    0.0000 O   0  0  0  0  0  0  0  0  0  0  0  0
    2.0292   -1.6292    0.0000 C   0  0  0  0  0  0  0  0  0  0  0  0
    2.0292   -3.0542    0.0000 C   0  0  0  0  0  0  0  0  0  0  0  0
    3.6792   -3.0542    0.0000 C   0  0  0  0  0  0  0  0  0  0  0  0
    6.5417   -3.1167    0.0000 Cl  0  0  0  0  0  0  0  0  0  0  0  0
    4.9167   -2.3417    0.0000 N   0  0  0  0  0  0  0  0  0  0  0  0
    4.5042   -3.0542    0.0000 C   0  0  0  0  0  0  0  0  0  0  0  0
    0.8000   -2.3417    0.0000 C   0  0  0  0  0  0  0  0  0  0  0  0
    1.2042   -3.0542    0.0000 C   0  0  0  0  0  0  0  0  0  0  0  0
    1.2042   -1.6292    0.0000 C   0  0  0  0  0  0  0  0  0  0  0  0
    2.4417   -3.7667    0.0000 C   0  0  0  0  0  0  0  0  0  0  0  0
    2.4417   -0.9167    0.0000 C   0  0  0  0  0  0  0  0  0  0  0  0
    4.9167   -3.7750    0.0000 C   0  0  0  0  0  0  0  0  0  0  0  0
  2  1  1  0
  3  1  2  0
  4  1  1  0
  5  2  1  0
  7  8  1  0
  8  5  1  0
  9 10  1  0
 10  4  2  0
 11  3  1  0
 12  4  1  0
 13  3  1  0
 14  8  1  0
  9 11  2  0
M  END
>  <ID>  (2435) 


>  <MOLENAME>  (2435) 
MEXILETINE HYDROCHLORIDE

>  <therap>  (2435) 
antiarrhythmic

>  <ref>  (2435) 
Adv. Neurol. (2002), 88, 147-157; Drugs (1979), 17(3), 161-81; Br. J. Pharmacol. (1977), 61(1), 118P-19P

>  <cas#>  (2435) 
5370-01-4, 31828-71-4 [mexiletine]

>  <source>  (2435) 
synthetic; Ko-1173

>  <status>  (2435) 
USP, INN, BAN, JAN

>  <tradename>  (2435) 
nan

>  <SMILES>  (2435) 
Cc1cccc(C)c1OCC(C)N

>  <standardized_failed>  (2435) 
False

$$$$

     RDKit          2D

 37 41  0  0  0  0  0  0  0  0999 V2000
    2.9417   -2.3917    0.0000 C   0  0  0  0  0  0  0  0  0  0  0  0
    2.2667   -3.5792    0.0000 C   0  0  0  0  0  0  0  0  0  0  0  0
    2.9417   -3.1792    0.0000 C   0  0  0  0  0  0  0  0  0  0  0  0
    0.8917   -3.5917    0.0000 C   0  0  0  0  0  0  0  0  0  0  0  0
    1.5667   -3.1917    0.0000 C   0  0  0  0  0  0  0  0  0  0  0  0
    2.2542   -1.9917    0.0000 C   0  0  0  0  0  0  0  0  0  0  0  0
    1.5667   -2.3917    0.0000 C   0  0  0  0  0  0  0  0  0  0  0  0
    0.8917   -4.3792    0.0000 C   0  0  0  0  0  0  0  0  0  0  0  0
    3.6292   -1.9917    0.0000 C   0  0  0  0  0  0  0  0  0  0  0  0
    0.2042   -4.7917    0.0000 C   0  0  0  0  0  0  0  0  0  0  0  0
    4.3167   -0.8167    0.0000 C   0  0  0  0  0  0  0  0  0  0  0  0
    3.6292   -1.2042    0.0000 C   0  0  0  0  0  0  0  0  0  0  0  0
    4.3042   -2.3917    0.0000 C   0  0  0  0  0  0  0  0  0  0  0  0
   -0.4833   -4.3917    0.0000 C   0  0  0  0  0  0  0  0  0  0  0  0
    2.2667   -4.3792    0.0000 C   0  0  0  0  0  0  0  0  0  0  0  0
    4.7167   -0.0917    0.0000 C   0  0  0  0  0  0  0  0  0  0  0  0
    0.1917   -3.1917    0.0000 C   0  0  0  0  0  0  0  0  0  0  0  0
    3.6292   -3.5667    0.0000 C   0  0  0  0  0  0  0  0  0  0  0  0
    1.5792   -4.7792    0.0000 C   0  0  0  0  0  0  0  0  0  0  0  0
   -1.1958   -4.8042    0.0000 O   0  0  0  0  0  0  0  0  0  0  0  0
   -1.9083   -4.3792    0.0000 C   0  0  0  0  0  0  0  0  0  0  0  0
    0.8542   -1.9917    0.0000 O   0  0  0  0  0  0  0  0  0  0  0  0
    4.3167   -3.1792    0.0000 C   0  0  0  0  0  0  0  0  0  0  0  0
   -0.4833   -3.6042    0.0000 C   0  0  0  0  0  0  0  0  0  0  0  0
    4.9917   -1.2167    0.0000 C   0  0  0  0  0  0  0  0  0  0  0  0
    4.9917   -2.0042    0.0000 C   0  0  0  0  0  0  0  0  0  0  0  0
    4.3042    0.6208    0.0000 O   0  0  0  0  0  0  0  0  0  0  0  0
   -1.9083   -3.5625    0.0000 O   0  0  0  0  0  0  0  0  0  0  0  0
    2.2667   -2.7542    0.0000 C   0  0  0  0  0  0  0  0  0  0  0  0
    0.8792   -2.7667    0.0000 C   0  0  0  0  0  0  0  0  0  0  0  0
    2.9417   -4.0042    0.0000 C   0  0  0  0  0  0  0  0  0  0  0  0
    5.5417   -0.0792    0.0000 O   0  0  0  0  0  0  0  0  0  0  0  0
    0.6167   -5.5042    0.0000 C   0  0  0  0  0  0  0  0  0  0  0  0
   -0.2083   -5.5042    0.0000 C   0  0  0  0  0  0  0  0  0  0  0  0
    3.7292   -0.2292    0.0000 C   0  0  0  0  0  0  0  0  0  0  0  0
    5.0167   -2.8042    0.0000 C   0  0  0  0  0  0  0  0  0  0  0  0
   -2.6250   -4.7917    0.0000 C   0  0  0  0  0  0  0  0  0  0  0  0
  2  3  1  0
  3  1  1  0
  4  5  1  0
  5  7  1  0
  6  1  2  0
  7  6  1  0
  8  4  1  0
  9  1  1  0
 10  8  1  0
 11 12  1  0
  9 12  1  6
 13  9  1  0
 14 24  1  0
 15  2  1  0
 11 16  1  0
 17  4  1  0
 18  3  1  0
 19 15  1  0
 14 20  1  1
 21 20  1  0
 22  7  2  0
 23 13  1  0
 24 17  1  0
 25 26  1  0
 26 13  1  0
 27 16  2  0
 28 21  2  0
  2 29  1  1
  4 30  1  1
  3 31  1  6
 32 16  1  0
 33 10  1  0
 34 10  1  0
 11 35  1  6
 13 36  1  1
 37 21  1  0
 23 18  1  0
  5  2  1  0
 25 11  1  0
  8 19  1  0
 10 14  1  0
M  END
>  <ID>  (2436) 


>  <MOLENAME>  (2436) 
ACETOXOLONE

>  <therap>  (2436) 
antiulcer

>  <ref>  (2436) 
J Biol Chem 281:5877 (2006)

>  <cas#>  (2436) 
nan

>  <source>  (2436) 
synthetic

>  <status>  (2436) 
experimental

>  <tradename>  (2436) 
nan

>  <SMILES>  (2436) 
CC(=O)O[C@H]1CC[C@@]2(C)C(CC[C@]3(C)C2C(=O)C=C2[C@@H]4C[C@@](C)(C(=O)O)CC[C@]4(C)CC[C@]23C)C1(C)C

>  <standardized_failed>  (2436) 
False

$$$$

     RDKit          2D

 22 22  0  0  0  0  0  0  0  0999 V2000
    5.7417   -6.4542    0.0000 C   0  0  0  0  0  0  0  0  0  0  0  0
    5.7250   -3.1625    0.0000 C   0  0  0  0  0  0  0  0  0  0  0  0
    6.4542   -6.8625    0.0000 N   0  0  0  0  0  0  0  0  0  0  0  0
    6.4292   -2.7500    0.0000 N   0  0  0  0  0  0  0  0  0  0  0  0
    7.1500   -3.1625    0.0000 C   0  0  0  0  0  0  0  0  0  0  0  0
    7.1667   -6.4417    0.0000 C   0  0  0  0  0  0  0  0  0  0  0  0
    5.7375   -5.6292    0.0000 N   0  0  0  0  0  0  0  0  0  0  0  0
    5.7292   -3.9875    0.0000 N   0  0  0  0  0  0  0  0  0  0  0  0
    5.0250   -5.2250    0.0000 C   0  0  0  0  0  0  0  0  0  0  0  0
    5.0167   -4.4000    0.0000 C   0  0  0  0  0  0  0  0  0  0  0  0
    5.0292   -6.8667    0.0000 S   0  0  0  0  0  0  0  0  0  0  0  0
    5.0042   -2.7542    0.0000 S   0  0  0  0  0  0  0  0  0  0  0  0
    7.1542   -3.9875    0.0000 O   0  0  0  0  0  0  0  0  0  0  0  0
    7.1667   -5.6167    0.0000 O   0  0  0  0  0  0  0  0  0  0  0  0
    7.8875   -6.8542    0.0000 O   0  0  0  0  0  0  0  0  0  0  0  0
    7.8625   -2.7417    0.0000 O   0  0  0  0  0  0  0  0  0  0  0  0
    4.3042   -3.9917    0.0000 C   0  0  0  0  0  0  0  0  0  0  0  0
    4.3042   -5.6417    0.0000 C   0  0  0  0  0  0  0  0  0  0  0  0
    8.5792   -3.1542    0.0000 C   0  0  0  0  0  0  0  0  0  0  0  0
    8.6000   -6.4417    0.0000 C   0  0  0  0  0  0  0  0  0  0  0  0
    3.5875   -5.2292    0.0000 C   0  0  0  0  0  0  0  0  0  0  0  0
    3.5875   -4.4042    0.0000 C   0  0  0  0  0  0  0  0  0  0  0  0
  2  8  1  0
  3  1  1  0
  4  2  1  0
  5  4  1  0
  6  3  1  0
  7  1  1  0
  8 10  1  0
  9  7  1  0
 10  9  2  0
 11  1  2  0
 12  2  2  0
 13  5  2  0
 14  6  2  0
 15  6  1  0
 16  5  1  0
 17 10  1  0
 18  9  1  0
 19 16  1  0
 20 15  1  0
 21 18  2  0
 22 21  1  0
 22 17  2  0
M  END
>  <ID>  (2437) 


>  <MOLENAME>  (2437) 
THIOPHANATE

>  <therap>  (2437) 
antifungal (systemic plant)

>  <ref>  (2437) 
Toxicol Appl Pharmacol 23:606 (1972); 30:129 (1974)

>  <cas#>  (2437) 
23564-06-9

>  <source>  (2437) 
synthetic

>  <status>  (2437) 
BAN

>  <tradename>  (2437) 
nan

>  <SMILES>  (2437) 
COC(=O)NC(=S)Nc1c(NC(=S)NC(=O)OC)cccc1

>  <standardized_failed>  (2437) 
False

$$$$

     RDKit          2D

 14 12  0  0  0  0  0  0  0  0999 V2000
    6.2167   -2.6542    0.0000 S   0  0  0  0  0  0  0  0  0  0  0  0
    3.9542   -4.4792    0.0000 C   0  0  0  0  0  0  0  0  0  0  0  0
    6.2042   -2.0917    0.0000 O   0  0  0  0  0  0  0  0  0  0  0  0
    5.6500   -2.6500    0.0000 O   0  0  0  0  0  0  0  0  0  0  0  0
    3.9542   -3.6542    0.0000 N   0  0  0  0  0  0  0  0  0  0  0  0
    6.7792   -2.6542    0.0000 O   0  0  0  0  0  0  0  0  0  0  0  0
    6.2042   -3.2167    0.0000 O   0  0  0  0  0  0  0  0  0  0  0  0
    4.6667   -4.8917    0.0000 N   0  0  0  0  0  0  0  0  0  0  0  0
    3.2417   -4.8917    0.0000 N   0  0  0  0  0  0  0  0  0  0  0  0
    8.2292   -4.4667    0.0000 N   0  0  0  0  0  0  0  0  0  0  0  0
    5.3792   -4.4792    0.0000 C   0  0  0  0  0  0  0  0  0  0  0  0
    7.5167   -4.8792    0.0000 C   0  0  0  0  0  0  0  0  0  0  0  0
    6.0917   -4.8917    0.0000 C   0  0  0  0  0  0  0  0  0  0  0  0
    6.8042   -4.4792    0.0000 C   0  0  0  0  0  0  0  0  0  0  0  0
  3  1  2  0
  4  1  2  0
  5  2  2  0
  6  1  1  0
  7  1  1  0
  8  2  1  0
  9  2  1  0
 10 12  1  0
 11  8  1  0
 12 14  1  0
 13 11  1  0
 14 13  1  0
M  END
>  <ID>  (2438) 


>  <MOLENAME>  (2438) 
AGMATINE SULFATE

>  <therap>  (2438) 
NMDA blocker, alpha-2 adrenergic agonist; NO synthase inhibitor

>  <ref>  (2438) 
JACS 41:681 (1919); Science 263:966 (1994); Biochem J 316:247 (1996); J Pharmacol Exp Therap 288:544 (1999); Trends Pharmacol Sci 21:187 (2000); Mol Pharmacol 59:24 (2001)

>  <cas#>  (2438) 
2482-00-0

>  <source>  (2438) 
Ambrosia entemisifolia

>  <status>  (2438) 
experimental

>  <tradename>  (2438) 
nan

>  <SMILES>  (2438) 
N=C(N)NCCCCN

>  <standardized_failed>  (2438) 
False

$$$$

     RDKit          2D

 63 63  0  0  0  0  0  0  0  0999 V2000
    1.3667   -2.3042    0.0000 C   0  0  0  0  0  0  0  0  0  0  0  0
    1.3667   -3.1292    0.0000 C   0  0  0  0  0  0  0  0  0  0  0  0
    2.7875   -3.1292    0.0000 C   0  0  0  0  0  0  0  0  0  0  0  0
    2.0667   -3.5417    0.0000 C   0  0  0  0  0  0  0  0  0  0  0  0
    2.0667   -1.8917    0.0000 C   0  0  0  0  0  0  0  0  0  0  0  0
    2.7875   -2.3042    0.0000 C   0  0  0  0  0  0  0  0  0  0  0  0
    3.5000   -3.5417    0.0000 C   0  0  0  0  0  0  0  0  0  0  0  0
    4.2125   -3.1292    0.0000 C   0  0  0  0  0  0  0  0  0  0  0  0
    2.0667   -1.0667    0.0000 O   0  0  0  0  0  0  0  0  0  0  0  0
    2.0667   -4.3667    0.0000 O   0  0  0  0  0  0  0  0  0  0  0  0
    4.9250   -3.5417    0.0000 C   0  0  0  0  0  0  0  0  0  0  0  0
    0.6500   -3.5417    0.0000 O   0  0  0  0  0  0  0  0  0  0  0  0
    0.6500   -1.8917    0.0000 O   0  0  0  0  0  0  0  0  0  0  0  0
    7.7750   -3.5417    0.0000 C   0  0  0  0  0  0  0  0  0  0  0  0
   10.6250   -3.5417    0.0000 C   0  0  0  0  0  0  0  0  0  0  0  0
   13.4750   -3.5417    0.0000 C   0  0  0  0  0  0  0  0  0  0  0  0
   12.0500   -6.0042    0.0000 C   0  0  0  0  0  0  0  0  0  0  0  0
    9.9125   -7.2417    0.0000 C   0  0  0  0  0  0  0  0  0  0  0  0
    7.0625   -7.2500    0.0000 C   0  0  0  0  0  0  0  0  0  0  0  0
    4.2125   -7.2542    0.0000 C   0  0  0  0  0  0  0  0  0  0  0  0
    1.3625   -7.2667    0.0000 C   0  0  0  0  0  0  0  0  0  0  0  0
   -1.4875   -7.2750    0.0000 C   0  0  0  0  0  0  0  0  0  0  0  0
   -0.7750   -6.8625    0.0000 C   0  0  0  0  0  0  0  0  0  0  0  0
    7.7750   -6.8375    0.0000 C   0  0  0  0  0  0  0  0  0  0  0  0
    9.9125   -3.1292    0.0000 C   0  0  0  0  0  0  0  0  0  0  0  0
    4.9250   -6.8417    0.0000 C   0  0  0  0  0  0  0  0  0  0  0  0
   12.7625   -5.5917    0.0000 C   0  0  0  0  0  0  0  0  0  0  0  0
    2.0667   -6.8542    0.0000 C   0  0  0  0  0  0  0  0  0  0  0  0
    7.0625   -3.1292    0.0000 C   0  0  0  0  0  0  0  0  0  0  0  0
   10.6250   -6.8292    0.0000 C   0  0  0  0  0  0  0  0  0  0  0  0
   12.7625   -3.1292    0.0000 C   0  0  0  0  0  0  0  0  0  0  0  0
    3.5042   -1.8917    0.0000 C   0  0  0  0  0  0  0  0  0  0  0  0
    5.6375   -7.2542    0.0000 C   0  0  0  0  0  0  0  0  0  0  0  0
   11.3375   -7.2375    0.0000 C   0  0  0  0  0  0  0  0  0  0  0  0
    9.2000   -3.5417    0.0000 C   0  0  0  0  0  0  0  0  0  0  0  0
    2.7875   -7.2625    0.0000 C   0  0  0  0  0  0  0  0  0  0  0  0
   12.7625   -4.7750    0.0000 C   0  0  0  0  0  0  0  0  0  0  0  0
    8.4875   -7.2417    0.0000 C   0  0  0  0  0  0  0  0  0  0  0  0
   -0.0625   -7.2667    0.0000 C   0  0  0  0  0  0  0  0  0  0  0  0
   12.0500   -3.5417    0.0000 C   0  0  0  0  0  0  0  0  0  0  0  0
    6.3500   -3.5417    0.0000 C   0  0  0  0  0  0  0  0  0  0  0  0
    5.6375   -3.1292    0.0000 C   0  0  0  0  0  0  0  0  0  0  0  0
    3.5000   -6.8500    0.0000 C   0  0  0  0  0  0  0  0  0  0  0  0
   11.3375   -3.1292    0.0000 C   0  0  0  0  0  0  0  0  0  0  0  0
    8.4875   -3.1292    0.0000 C   0  0  0  0  0  0  0  0  0  0  0  0
    6.3500   -6.8417    0.0000 C   0  0  0  0  0  0  0  0  0  0  0  0
    0.6500   -6.8542    0.0000 C   0  0  0  0  0  0  0  0  0  0  0  0
   13.4750   -4.3667    0.0000 C   0  0  0  0  0  0  0  0  0  0  0  0
    9.2000   -6.8292    0.0000 C   0  0  0  0  0  0  0  0  0  0  0  0
   12.0500   -6.8250    0.0000 C   0  0  0  0  0  0  0  0  0  0  0  0
    4.9250   -4.3667    0.0000 C   0  0  0  0  0  0  0  0  0  0  0  0
   -2.2000   -6.8667    0.0000 C   0  0  0  0  0  0  0  0  0  0  0  0
   -1.4875   -8.1000    0.0000 C   0  0  0  0  0  0  0  0  0  0  0  0
   10.6250   -4.3667    0.0000 C   0  0  0  0  0  0  0  0  0  0  0  0
   14.1875   -3.1292    0.0000 C   0  0  0  0  0  0  0  0  0  0  0  0
   11.3292   -5.5875    0.0000 C   0  0  0  0  0  0  0  0  0  0  0  0
    9.9125   -8.0667    0.0000 C   0  0  0  0  0  0  0  0  0  0  0  0
    7.0625   -8.0750    0.0000 C   0  0  0  0  0  0  0  0  0  0  0  0
    4.2125   -8.0792    0.0000 C   0  0  0  0  0  0  0  0  0  0  0  0
    1.3625   -8.0917    0.0000 C   0  0  0  0  0  0  0  0  0  0  0  0
    7.7750   -4.3667    0.0000 C   0  0  0  0  0  0  0  0  0  0  0  0
   -0.0625   -3.1292    0.0000 C   0  0  0  0  0  0  0  0  0  0  0  0
    0.6417   -1.0667    0.0000 C   0  0  0  0  0  0  0  0  0  0  0  0
  2  1  2  0
  3  6  2  0
  4  2  1  0
  5  1  1  0
  6  5  1  0
  7  3  1  0
  8  7  1  0
  9  5  2  0
 10  4  2  0
 11  8  2  0
 12  2  1  0
 13  1  1  0
 14 29  2  0
 15 25  2  0
 16 31  2  0
 17 27  2  0
 18 30  2  0
 19 24  2  0
 20 26  2  0
 21 28  2  0
 22 23  2  0
 23 39  1  0
 24 38  1  0
 25 35  1  0
 26 33  1  0
 27 37  1  0
 28 36  1  0
 29 41  1  0
 30 34  1  0
 31 40  1  0
 32  6  1  0
 33 46  1  0
 34 50  1  0
 35 45  1  0
 36 43  1  0
 37 48  1  0
 38 49  1  0
 39 47  1  0
 40 44  1  0
 41 42  1  0
 42 11  1  0
 43 20  1  0
 44 15  1  0
 45 14  1  0
 46 19  1  0
 47 21  1  0
 48 16  1  0
 49 18  1  0
 50 17  1  0
 51 11  1  0
 52 22  1  0
 53 22  1  0
 54 15  1  0
 55 16  1  0
 56 17  1  0
 57 18  1  0
 58 19  1  0
 59 20  1  0
 60 21  1  0
 61 14  1  0
 62 12  1  0
 63 13  1  0
  4  3  1  0
M  END
>  <ID>  (2439) 


>  <MOLENAME>  (2439) 
UBIDECARENONE [5mM]

>  <therap>  (2439) 
antioxidant, cardiovascular agent

>  <ref>  (2439) 
J Neurolog Sci 100:70 (1990); Reactions Weekly 1144,:5  (2007)

>  <cas#>  (2439) 
303-98-0

>  <source>  (2439) 
widespread in aerobic organisms; COENZYME Q10

>  <status>  (2439) 
experimental

>  <tradename>  (2439) 
nan

>  <SMILES>  (2439) 
COC1=C(OC)C(=O)C(C/C=C(\C)CC/C=C(\C)CC/C=C(\C)CC/C=C(/C)CC/C=C(\C)CC/C=C(\C)CC/C=C(\C)CC/C=C(\C)CC/C=C(\C)CCC=C(C)C)=C(C)C1=O

>  <standardized_failed>  (2439) 
False

$$$$

     RDKit          2D

 79 86  0  0  0  0  0  0  0  0999 V2000
   10.2792   -2.1167    0.0000 C   0  0  0  0  0  0  0  0  0  0  0  0
    8.8542   -2.9125    0.0000 C   0  0  0  0  0  0  0  0  0  0  0  0
    8.8667   -2.0917    0.0000 C   0  0  0  0  0  0  0  0  0  0  0  0
    2.4292   -5.7625    0.0000 C   0  0  0  0  0  0  0  0  0  0  0  0
    2.4375   -4.9375    0.0000 C   0  0  0  0  0  0  0  0  0  0  0  0
    8.1417   -3.3167    0.0000 C   0  0  0  0  0  0  0  0  0  0  0  0
    9.5792   -1.6917    0.0000 C   0  0  0  0  0  0  0  0  0  0  0  0
    3.8625   -5.7750    0.0000 C   0  0  0  0  0  0  0  0  0  0  0  0
    6.7167   -3.3125    0.0000 C   0  0  0  0  0  0  0  0  0  0  0  0
    3.8667   -4.9500    0.0000 C   0  0  0  0  0  0  0  0  0  0  0  0
   11.0000   -1.7292    0.0000 C   0  0  0  0  0  0  0  0  0  0  0  0
    5.2792   -6.6042    0.0000 C   0  0  0  0  0  0  0  0  0  0  0  0
    1.0000   -6.5792    0.0000 C   0  0  0  0  0  0  0  0  0  0  0  0
    3.1500   -4.5292    0.0000 O   0  0  0  0  0  0  0  0  0  0  0  0
    3.1417   -6.1792    0.0000 C   0  0  0  0  0  0  0  0  0  0  0  0
    5.9917   -6.2000    0.0000 C   0  0  0  0  0  0  0  0  0  0  0  0
    0.9917   -7.4000    0.0000 C   0  0  0  0  0  0  0  0  0  0  0  0
    7.4292   -2.9000    0.0000 C   0  0  0  0  0  0  0  0  0  0  0  0
    6.7167   -4.1292    0.0000 C   0  0  0  0  0  0  0  0  0  0  0  0
    6.0042   -4.5417    0.0000 C   0  0  0  0  0  0  0  0  0  0  0  0
   11.0167   -0.9042    0.0000 C   0  0  0  0  0  0  0  0  0  0  0  0
    6.7042   -6.6167    0.0000 C   0  0  0  0  0  0  0  0  0  0  0  0
    0.2750   -7.8042    0.0000 C   0  0  0  0  0  0  0  0  0  0  0  0
    1.7167   -6.1667    0.0000 O   0  0  0  0  0  0  0  0  0  0  0  0
    4.5667   -6.1917    0.0000 O   0  0  0  0  0  0  0  0  0  0  0  0
   10.2667   -2.9375    0.0000 C   0  0  0  0  0  0  0  0  0  0  0  0
    0.2875   -6.1542    0.0000 O   0  0  0  0  0  0  0  0  0  0  0  0
    5.2667   -7.4292    0.0000 O   0  0  0  0  0  0  0  0  0  0  0  0
    6.6917   -7.4417    0.0000 C   0  0  0  0  0  0  0  0  0  0  0  0
   -0.4333   -7.3917    0.0000 C   0  0  0  0  0  0  0  0  0  0  0  0
   10.3167   -0.4792    0.0000 C   0  0  0  0  0  0  0  0  0  0  0  0
    9.5542   -3.3292    0.0000 C   0  0  0  0  0  0  0  0  0  0  0  0
   11.7417   -0.5125    0.0000 O   0  0  0  0  0  0  0  0  0  0  0  0
    8.1625   -1.6667    0.0000 C   0  0  0  0  0  0  0  0  0  0  0  0
   11.7417    0.3125    0.0000 C   0  0  0  0  0  0  0  0  0  0  0  0
    5.9792   -7.8500    0.0000 C   0  0  0  0  0  0  0  0  0  0  0  0
   -0.4250   -6.5667    0.0000 C   0  0  0  0  0  0  0  0  0  0  0  0
    9.6000   -0.8750    0.0000 C   0  0  0  0  0  0  0  0  0  0  0  0
    5.3000   -4.1292    0.0000 C   0  0  0  0  0  0  0  0  0  0  0  0
    1.7250   -4.5167    0.0000 C   0  0  0  0  0  0  0  0  0  0  0  0
    4.5792   -4.5417    0.0000 O   0  0  0  0  0  0  0  0  0  0  0  0
    8.1417   -4.1417    0.0000 C   0  0  0  0  0  0  0  0  0  0  0  0
    7.4375   -2.0750    0.0000 C   0  0  0  0  0  0  0  0  0  0  0  0
   11.8250   -1.7292    0.0000 O   0  0  0  0  0  0  0  0  0  0  0  0
    6.0042   -2.8917    0.0000 C   0  0  0  0  0  0  0  0  0  0  0  0
    7.4292   -4.5500    0.0000 C   0  0  0  0  0  0  0  0  0  0  0  0
   12.4500    0.7333    0.0000 C   0  0  0  0  0  0  0  0  0  0  0  0
   12.6500   -1.7292    0.0000 C   0  0  0  0  0  0  0  0  0  0  0  0
    5.3000   -3.3125    0.0000 C   0  0  0  0  0  0  0  0  0  0  0  0
   11.0167    0.7208    0.0000 O   0  0  0  0  0  0  0  0  0  0  0  0
    1.7125   -3.7500    0.0000 O   0  0  0  0  0  0  0  0  0  0  0  0
   13.0625   -1.0125    0.0000 O   0  0  0  0  0  0  0  0  0  0  0  0
   10.9917   -2.5292    0.0000 C   0  0  0  0  0  0  0  0  0  0  0  0
   12.4417    1.5583    0.0000 C   0  0  0  0  0  0  0  0  0  0  0  0
    1.7042   -7.8167    0.0000 O   0  0  0  0  0  0  0  0  0  0  0  0
    6.0042   -5.3792    0.0000 O   0  0  0  0  0  0  0  0  0  0  0  0
    3.1292   -7.0042    0.0000 O   0  0  0  0  0  0  0  0  0  0  0  0
    0.2667   -8.6292    0.0000 O   0  0  0  0  0  0  0  0  0  0  0  0
    7.4250   -6.2167    0.0000 O   0  0  0  0  0  0  0  0  0  0  0  0
    8.8500   -3.7375    0.0000 C   0  0  0  0  0  0  0  0  0  0  0  0
   -1.1458   -7.8000    0.0000 O   0  0  0  0  0  0  0  0  0  0  0  0
    7.4042   -7.8625    0.0000 O   0  0  0  0  0  0  0  0  0  0  0  0
   10.9875   -3.3500    0.0000 O   0  0  0  0  0  0  0  0  0  0  0  0
    6.5917   -5.1292    0.0000 C   0  0  0  0  0  0  0  0  0  0  0  0
    1.0917   -5.0500    0.0000 O   0  0  0  0  0  0  0  0  0  0  0  0
    8.1375   -2.4917    0.0000 C   0  0  0  0  0  0  0  0  0  0  0  0
    6.7167   -2.4875    0.0000 C   0  0  0  0  0  0  0  0  0  0  0  0
    5.4167   -5.1292    0.0000 C   0  0  0  0  0  0  0  0  0  0  0  0
   -1.1375   -6.1500    0.0000 C   0  0  0  0  0  0  0  0  0  0  0  0
    5.9667   -8.6667    0.0000 C   0  0  0  0  0  0  0  0  0  0  0  0
    9.7292    0.1083    0.0000 C   0  0  0  0  0  0  0  0  0  0  0  0
   10.9042    0.1083    0.0000 C   0  0  0  0  0  0  0  0  0  0  0  0
   11.8167   -2.5292    0.0000 O   0  0  0  0  0  0  0  0  0  0  0  0
    7.4500   -5.1542    0.0000 O   0  0  0  0  0  0  0  0  0  0  0  0
   -1.7708   -6.6792    0.0000 O   0  0  0  0  0  0  0  0  0  0  0  0
    6.7417   -8.9542    0.0000 O   0  0  0  0  0  0  0  0  0  0  0  0
   13.1667    0.3333    0.0000 C   0  0  0  0  0  0  0  0  0  0  0  0
   13.0625   -2.4417    0.0000 C   0  0  0  0  0  0  0  0  0  0  0  0
   11.7250    1.9625    0.0000 C   0  0  0  0  0  0  0  0  0  0  0  0
  2 32  1  0
  3  7  1  0
  4  5  1  0
  5 14  1  0
  6  2  1  0
  7  1  1  0
  8 10  1  0
  9 18  1  0
 10 41  1  1
 11  1  1  0
 12 25  1  1
 13 24  1  1
 14 10  1  0
 15  8  1  0
 16 12  1  0
 17 13  1  0
 18  6  1  0
 19 46  1  0
 20 19  1  0
 21 11  1  0
 22 16  1  0
 23 17  1  0
  4 24  1  6
  8 25  1  6
 26  1  1  0
 27 13  1  0
 28 12  1  0
 29 36  1  0
 30 37  1  0
 31 21  1  0
 32 26  1  0
 21 33  1  6
 34  3  2  0
 35 33  1  0
 36 28  1  0
 37 27  1  0
 38  7  1  0
 39 20  1  0
  5 40  1  1
 39 41  1  1
 42  6  1  0
 43 34  1  0
 11 44  1  6
 45  9  1  0
 46 42  1  0
 47 35  1  0
 48 44  1  0
 49 45  1  0
 50 35  2  0
 51 40  2  0
 52 48  2  0
  1 53  1  1
 54 47  2  0
 17 55  1  6
 16 56  1  6
 15 57  1  1
 23 58  1  1
 22 59  1  1
  2 60  1  6
 30 61  1  6
 29 62  1  6
 26 63  1  6
 20 64  1  0
 65 40  1  0
  6 66  1  1
  9 67  1  1
 20 68  1  6
 37 69  1  1
 36 70  1  1
 71 31  1  0
 72 31  1  0
 73 53  1  0
 74 64  1  0
 75 69  1  0
 76 70  1  0
 77 47  1  0
 78 48  1  0
 79 54  1  0
 38 31  1  0
  2  3  1  0
 43 18  1  0
 19  9  1  0
 39 49  1  0
  4 15  1  0
 29 22  1  0
 30 23  1  0
M  END
>  <ID>  (2440) 


>  <MOLENAME>  (2440) 
ESCIN

>  <therap>  (2440) 
membrane permeabilizer

>  <ref>  (2440) 
Arzneimittel-Forsch 13: 385 (1963)

>  <cas#>  (2440) 
6805-41-0

>  <source>  (2440) 
Aesculus hippocastanum

>  <status>  (2440) 
INN

>  <tradename>  (2440) 
nan

>  <SMILES>  (2440) 
C/C=C(/C)C(=O)O[C@@H]1[C@H](OC(C)=O)[C@@]2(CO)C(CC1(C)C)C1=CCC3[C@@]4(C)CC[C@H](O[C@@H]5O[C@H](C(=O)O)[C@@H](O[C@@H]6O[C@H](CO)[C@@H](O)[C@H](O)[C@H]6O)[C@H](O)[C@H]5O[C@@H]5O[C@H](CO)[C@@H](O)[C@H](O)[C@H]5O)[C@](C)(CO)C4CC[C@@]3(C)[C@]1(C)C[C@H]2O

>  <standardized_failed>  (2440) 
False

$$$$

     RDKit          2D

 27 28  0  0  0  0  0  0  0  0999 V2000
    1.4167   -0.3750    0.0000 C   0  0  0  0  0  0  0  0  0  0  0  0
    5.0042    0.8958    0.0000 C   0  0  0  0  0  0  0  0  0  0  0  0
    2.1417    0.0500    0.0000 C   0  0  0  0  0  0  0  0  0  0  0  0
    1.4167   -1.2000    0.0000 C   0  0  0  0  0  0  0  0  0  0  0  0
    4.2917    1.3083    0.0000 C   0  0  0  0  0  0  0  0  0  0  0  0
    0.7042   -1.6125    0.0000 C   0  0  0  0  0  0  0  0  0  0  0  0
    3.5792    0.8958    0.0000 C   0  0  0  0  0  0  0  0  0  0  0  0
    3.5792    0.0625    0.0000 C   0  0  0  0  0  0  0  0  0  0  0  0
    0.7042    0.0375    0.0000 C   0  0  0  0  0  0  0  0  0  0  0  0
    5.0042    0.0625    0.0000 C   0  0  0  0  0  0  0  0  0  0  0  0
    2.8667   -0.3542    0.0000 O   0  0  0  0  0  0  0  0  0  0  0  0
   -0.0083   -1.2000    0.0000 C   0  0  0  0  0  0  0  0  0  0  0  0
    5.7292    1.3208    0.0000 C   0  0  0  0  0  0  0  0  0  0  0  0
    4.2917   -0.3500    0.0000 C   0  0  0  0  0  0  0  0  0  0  0  0
   -0.0083   -0.3750    0.0000 C   0  0  0  0  0  0  0  0  0  0  0  0
    2.1292    0.8833    0.0000 O   0  0  0  0  0  0  0  0  0  0  0  0
    5.7167    2.1500    0.0000 O   0  0  0  0  0  0  0  0  0  0  0  0
    2.1417   -1.6250    0.0000 O   0  0  0  0  0  0  0  0  0  0  0  0
    4.2917    2.1333    0.0000 O   0  0  0  0  0  0  0  0  0  0  0  0
    0.7042   -2.4375    0.0000 C   0  0  0  0  0  0  0  0  0  0  0  0
   -0.7333   -1.6250    0.0000 O   0  0  0  0  0  0  0  0  0  0  0  0
    6.4542    0.9125    0.0000 O   0  0  0  0  0  0  0  0  0  0  0  0
    2.8542    1.3125    0.0000 C   0  0  0  0  0  0  0  0  0  0  0  0
    0.7042    0.8625    0.0000 C   0  0  0  0  0  0  0  0  0  0  0  0
    5.7292   -0.3625    0.0000 C   0  0  0  0  0  0  0  0  0  0  0  0
    1.4167   -2.8500    0.0000 O   0  0  0  0  0  0  0  0  0  0  0  0
    6.4667    0.0833    0.0000 C   0  0  0  0  0  0  0  0  0  0  0  0
  2 10  2  0
  3  1  1  0
  4  1  2  0
  5  7  2  0
  6  4  1  0
  7  8  1  0
  8 11  1  0
  9  1  1  0
 10 14  1  0
 11  3  1  0
 12 15  1  0
 13  2  1  0
 14  8  2  0
 15  9  2  0
 16  3  2  0
 17 13  2  0
 18  4  1  0
 19  5  1  0
 20  6  1  0
 21 12  1  0
 22 13  1  0
 23  7  1  0
 24  9  1  0
 25 10  1  0
 26 20  1  0
 27 22  1  0
 12  6  2  0
  2  5  1  0
M  END
>  <ID>  (2441) 


>  <MOLENAME>  (2441) 
DIHYDROATRANORIN

>  <therap>  (2441) 
nan

>  <ref>  (2441) 
nan

>  <cas#>  (2441) 
69168-12-3

>  <source>  (2441) 
lichen metabolite

>  <status>  (2441) 
undetermined activity

>  <tradename>  (2441) 
nan

>  <SMILES>  (2441) 
COC(=O)c1c(C)cc(OC(=O)c2c(O)c(CO)c(O)cc2C)c(C)c1O

>  <standardized_failed>  (2441) 
False

$$$$

     RDKit          2D

 27 29  0  0  0  0  0  0  0  0999 V2000
    4.0375   -1.1375    0.0000 C   0  0  0  0  0  0  0  0  0  0  0  0
    3.2292   -1.3042    0.0000 C   0  0  0  0  0  0  0  0  0  0  0  0
    2.9917   -4.2667    0.0000 C   0  0  0  0  0  0  0  0  0  0  0  0
    3.5125   -2.7042    0.0000 C   0  0  0  0  0  0  0  0  0  0  0  0
    3.5375   -4.8917    0.0000 C   0  0  0  0  0  0  0  0  0  0  0  0
    2.9667   -2.0917    0.0000 C   0  0  0  0  0  0  0  0  0  0  0  0
    3.2667   -5.6750    0.0000 C   0  0  0  0  0  0  0  0  0  0  0  0
    2.1792   -4.4375    0.0000 O   0  0  0  0  0  0  0  0  0  0  0  0
    4.5917   -1.7542    0.0000 C   0  0  0  0  0  0  0  0  0  0  0  0
    3.2542   -3.4917    0.0000 O   0  0  0  0  0  0  0  0  0  0  0  0
    2.4625   -5.8375    0.0000 C   0  0  0  0  0  0  0  0  0  0  0  0
    4.3292   -2.5417    0.0000 O   0  0  0  0  0  0  0  0  0  0  0  0
    1.9167   -5.2167    0.0000 C   0  0  0  0  0  0  0  0  0  0  0  0
    2.5625   -0.8167    0.0000 C   0  0  0  0  0  0  0  0  0  0  0  0
    4.3000   -0.3542    0.0000 C   0  0  0  0  0  0  0  0  0  0  0  0
    2.1500   -2.0917    0.0000 C   0  0  0  0  0  0  0  0  0  0  0  0
    1.8917   -1.3042    0.0000 C   0  0  0  0  0  0  0  0  0  0  0  0
    3.7500    0.2625    0.0000 O   0  0  0  0  0  0  0  0  0  0  0  0
    4.3417   -4.7292    0.0000 O   0  0  0  0  0  0  0  0  0  0  0  0
    3.8167   -6.2917    0.0000 O   0  0  0  0  0  0  0  0  0  0  0  0
    2.1917   -6.6167    0.0000 O   0  0  0  0  0  0  0  0  0  0  0  0
    5.1042   -0.1875    0.0000 O   0  0  0  0  0  0  0  0  0  0  0  0
    1.1125   -1.0500    0.0000 O   0  0  0  0  0  0  0  0  0  0  0  0
    1.1042   -5.3792    0.0000 C   0  0  0  0  0  0  0  0  0  0  0  0
    1.6625   -2.7542    0.0000 C   0  0  0  0  0  0  0  0  0  0  0  0
    0.9917   -6.1917    0.0000 O   0  0  0  0  0  0  0  0  0  0  0  0
    5.6542   -0.8042    0.0000 C   0  0  0  0  0  0  0  0  0  0  0  0
  2  1  1  0
  3 10  1  1
  4 12  1  0
  5  3  1  0
  6  2  1  0
  7  5  1  0
  8  3  1  0
  9  1  2  0
  4 10  1  1
 11 13  1  0
 12  9  1  0
 13  8  1  0
  2 14  1  6
 15  1  1  0
 16  6  1  0
 17 14  1  0
 18 15  2  0
  5 19  1  6
  7 20  1  1
 11 21  1  6
 22 15  1  0
 17 23  1  1
 13 24  1  1
 16 25  1  1
 26 24  1  0
 27 22  1  0
  6  4  1  6
 16 17  1  0
 11  7  1  0
M  END
>  <ID>  (2442) 


>  <MOLENAME>  (2442) 
LOGANIN

>  <therap>  (2442) 
nan

>  <ref>  (2442) 
J Chem Soc 1961:1407

>  <cas#>  (2442) 
18524-94-2

>  <source>  (2442) 
Strychnos nux-vomica, Menyanthes trifoliata

>  <status>  (2442) 
undetermined activity

>  <tradename>  (2442) 
nan

>  <SMILES>  (2442) 
COC(=O)C1=CO[C@@H](O[C@@H]2O[C@H](CO)[C@@H](O)[C@H](O)[C@H]2O)[C@H]2[C@@H]1C[C@H](O)[C@@H]2C

>  <standardized_failed>  (2442) 
False

$$$$

     RDKit          2D

 62 69  0  0  0  0  0  0  0  0999 V2000
    5.0292   -5.1917    0.0000 C   0  0  0  0  0  0  0  0  0  0  0  0
    6.4667   -1.8792    0.0000 C   0  0  0  0  0  0  0  0  0  0  0  0
    5.7542   -1.4667    0.0000 C   0  0  0  0  0  0  0  0  0  0  0  0
    5.7500   -5.6042    0.0000 C   0  0  0  0  0  0  0  0  0  0  0  0
    6.4625   -5.1917    0.0000 C   0  0  0  0  0  0  0  0  0  0  0  0
    5.0417   -1.8792    0.0000 C   0  0  0  0  0  0  0  0  0  0  0  0
    5.7542   -3.1250    0.0000 C   0  0  0  0  0  0  0  0  0  0  0  0
    5.7500   -3.9500    0.0000 C   0  0  0  0  0  0  0  0  0  0  0  0
    5.0292   -4.3667    0.0000 C   0  0  0  0  0  0  0  0  0  0  0  0
    6.4667   -2.7042    0.0000 C   0  0  0  0  0  0  0  0  0  0  0  0
    7.1875   -7.2542    0.0000 C   0  0  0  0  0  0  0  0  0  0  0  0
    4.3167    0.1833    0.0000 C   0  0  0  0  0  0  0  0  0  0  0  0
    6.4667   -4.3667    0.0000 C   0  0  0  0  0  0  0  0  0  0  0  0
    5.0375   -2.7042    0.0000 C   0  0  0  0  0  0  0  0  0  0  0  0
    7.9042   -7.6667    0.0000 C   0  0  0  0  0  0  0  0  0  0  0  0
    3.5917    0.5958    0.0000 C   0  0  0  0  0  0  0  0  0  0  0  0
    7.9125   -8.5000    0.0000 C   0  0  0  0  0  0  0  0  0  0  0  0
    3.5917    1.4250    0.0000 C   0  0  0  0  0  0  0  0  0  0  0  0
    5.0292    0.6083    0.0000 O   0  0  0  0  0  0  0  0  0  0  0  0
    6.4667   -7.6792    0.0000 O   0  0  0  0  0  0  0  0  0  0  0  0
    7.2000   -8.9167    0.0000 C   0  0  0  0  0  0  0  0  0  0  0  0
    4.3042    1.8458    0.0000 C   0  0  0  0  0  0  0  0  0  0  0  0
    7.1792   -1.4667    0.0000 C   0  0  0  0  0  0  0  0  0  0  0  0
    4.3167   -5.6042    0.0000 C   0  0  0  0  0  0  0  0  0  0  0  0
    4.3250   -1.4667    0.0000 C   0  0  0  0  0  0  0  0  0  0  0  0
    7.1792   -5.6042    0.0000 C   0  0  0  0  0  0  0  0  0  0  0  0
    6.4792   -8.5042    0.0000 C   0  0  0  0  0  0  0  0  0  0  0  0
    5.0250    1.4333    0.0000 C   0  0  0  0  0  0  0  0  0  0  0  0
    7.1792   -3.1167    0.0000 C   0  0  0  0  0  0  0  0  0  0  0  0
    4.3167   -3.9542    0.0000 C   0  0  0  0  0  0  0  0  0  0  0  0
    7.1875   -6.4292    0.0000 O   0  0  0  0  0  0  0  0  0  0  0  0
    4.3167   -0.6417    0.0000 O   0  0  0  0  0  0  0  0  0  0  0  0
    3.6042   -4.3667    0.0000 C   0  0  0  0  0  0  0  0  0  0  0  0
    7.8917   -2.7042    0.0000 C   0  0  0  0  0  0  0  0  0  0  0  0
    2.8917   -3.9542    0.0000 C   0  0  0  0  0  0  0  0  0  0  0  0
    8.6125   -3.1167    0.0000 C   0  0  0  0  0  0  0  0  0  0  0  0
    7.8917   -1.8792    0.0000 C   0  0  0  0  0  0  0  0  0  0  0  0
    3.6042   -5.1917    0.0000 C   0  0  0  0  0  0  0  0  0  0  0  0
    5.7500   -6.4292    0.0000 O   0  0  0  0  0  0  0  0  0  0  0  0
    5.7542   -0.6417    0.0000 O   0  0  0  0  0  0  0  0  0  0  0  0
    2.8917   -3.1292    0.0000 O   0  0  0  0  0  0  0  0  0  0  0  0
    8.6125   -3.9417    0.0000 O   0  0  0  0  0  0  0  0  0  0  0  0
    8.6250   -7.2500    0.0000 O   0  0  0  0  0  0  0  0  0  0  0  0
    2.8792    0.1750    0.0000 O   0  0  0  0  0  0  0  0  0  0  0  0
    8.6292   -8.9042    0.0000 O   0  0  0  0  0  0  0  0  0  0  0  0
    2.8667    1.8333    0.0000 O   0  0  0  0  0  0  0  0  0  0  0  0
    4.3292   -6.4292    0.0000 O   0  0  0  0  0  0  0  0  0  0  0  0
    7.1792   -0.6417    0.0000 O   0  0  0  0  0  0  0  0  0  0  0  0
    7.2042   -9.7417    0.0000 O   0  0  0  0  0  0  0  0  0  0  0  0
    4.3000    2.6708    0.0000 O   0  0  0  0  0  0  0  0  0  0  0  0
    9.3250   -2.7042    0.0000 O   0  0  0  0  0  0  0  0  0  0  0  0
    2.1792   -4.3667    0.0000 O   0  0  0  0  0  0  0  0  0  0  0  0
    4.3250   -3.1250    0.0000 C   0  0  0  0  0  0  0  0  0  0  0  0
    7.1792   -3.9500    0.0000 C   0  0  0  0  0  0  0  0  0  0  0  0
    5.7625   -8.9250    0.0000 C   0  0  0  0  0  0  0  0  0  0  0  0
    5.7417    1.8500    0.0000 C   0  0  0  0  0  0  0  0  0  0  0  0
    3.6125   -1.8875    0.0000 C   0  0  0  0  0  0  0  0  0  0  0  0
    7.8917   -5.1917    0.0000 C   0  0  0  0  0  0  0  0  0  0  0  0
    5.9167   -9.7375    0.0000 O   0  0  0  0  0  0  0  0  0  0  0  0
    5.5875    2.6625    0.0000 O   0  0  0  0  0  0  0  0  0  0  0  0
    7.8917   -4.3625    0.0000 C   0  0  0  0  0  0  0  0  0  0  0  0
    3.6125   -2.7125    0.0000 C   0  0  0  0  0  0  0  0  0  0  0  0
  2 10  2  0
  3  6  1  0
  4  1  1  0
  5  4  1  0
  6 14  2  0
  7  8  1  0
  8  9  1  1
  9  1  2  0
  7 10  1  1
 11 31  1  6
 12 32  1  6
 13  8  1  0
 14  7  1  0
 15 11  1  0
 16 12  1  0
 17 15  1  0
 18 16  1  0
 19 12  1  0
 20 11  1  0
 21 27  1  0
 22 28  1  0
 23  2  1  0
 24  1  1  0
 25  6  1  0
 26  5  2  0
 27 20  1  0
 28 19  1  0
 29 10  1  0
 30  9  1  0
 31 26  1  0
 32 25  1  0
 33 38  1  0
 34 29  2  0
 35 33  1  0
 36 34  1  0
 37 34  1  0
 38 24  2  0
 39  4  2  0
 40  3  2  0
 41 35  2  0
 42 36  2  0
 15 43  1  6
 16 44  1  6
 17 45  1  1
 18 46  1  1
 47 24  1  0
 48 23  1  0
 21 49  1  6
 22 50  1  6
 51 36  1  0
 52 35  1  0
 53 14  1  0
 54 13  2  0
 27 55  1  1
 28 56  1  1
 57 62  1  0
 58 26  1  0
 59 55  1  0
 60 56  1  0
 61 54  1  0
 62 53  2  0
 33 30  2  0
 13  5  1  0
 61 58  2  0
  3  2  1  0
 57 25  2  0
 23 37  2  0
 21 17  1  0
 22 18  1  0
M  END
>  <ID>  (2443) 


>  <MOLENAME>  (2443) 
SENNOSIDE B

>  <therap>  (2443) 
cathartic

>  <ref>  (2443) 
Helv Chim Acta 33: 313 (1950)

>  <cas#>  (2443) 
nan

>  <source>  (2443) 
meso form; Cassia and Rheum spp

>  <status>  (2443) 
experimental

>  <tradename>  (2443) 
nan

>  <SMILES>  (2443) 
O=C(O)c1cc2c(C(=O)c3c(O[C@H]4O[C@H](CO)[C@@H](O)[C@H](O)[C@H]4O)cccc3[C@@H]2[C@@H]2c3c(C(=O)c4c2cccc4O[C@H]2O[C@H](CO)[C@@H](O)[C@H](O)[C@H]2O)c(O)cc(C(=O)O)c3)c(O)c1

>  <standardized_failed>  (2443) 
False

$$$$

     RDKit          2D

 14 14  0  0  0  0  0  0  0  0999 V2000
    4.3542   -4.2375    0.0000 C   0  0  0  0  0  0  0  0  0  0  0  0
    5.0750   -2.9917    0.0000 C   0  0  0  0  0  0  0  0  0  0  0  0
    5.0750   -3.8250    0.0000 C   0  0  0  0  0  0  0  0  0  0  0  0
    3.6417   -3.0000    0.0000 C   0  0  0  0  0  0  0  0  0  0  0  0
    3.6417   -3.8250    0.0000 C   0  0  0  0  0  0  0  0  0  0  0  0
    4.3542   -2.5792    0.0000 C   0  0  0  0  0  0  0  0  0  0  0  0
    5.7875   -2.5792    0.0000 C   0  0  0  0  0  0  0  0  0  0  0  0
    4.3542   -5.0625    0.0000 C   0  0  0  0  0  0  0  0  0  0  0  0
    4.3500   -5.8875    0.0000 N   0  0  0  0  0  0  0  0  0  0  0  0
    6.5000   -2.1625    0.0000 N   0  0  0  0  0  0  0  0  0  0  0  0
    2.9292   -2.5875    0.0000 Cl  0  0  0  0  0  0  0  0  0  0  0  0
    5.7917   -4.2375    0.0000 Cl  0  0  0  0  0  0  0  0  0  0  0  0
    2.9292   -4.2375    0.0000 Cl  0  0  0  0  0  0  0  0  0  0  0  0
    4.3542   -1.7542    0.0000 Cl  0  0  0  0  0  0  0  0  0  0  0  0
  2  3  1  0
  3  1  2  0
  4  5  2  0
  5  1  1  0
  6  4  1  0
  7  2  1  0
  8  1  1  0
  9  8  3  0
 10  7  3  0
 11  4  1  0
 12  3  1  0
 13  5  1  0
 14  6  1  0
  6  2  2  0
M  END
>  <ID>  (2444) 


>  <MOLENAME>  (2444) 
CHLOROTHALONIL

>  <therap>  (2444) 
antifungal, pesticide, acaricide

>  <ref>  (2444) 
Pesticide Biochem Physiol 3:160 (1973); J Pesticide Ref 17:14 (1997)

>  <cas#>  (2444) 
nan

>  <source>  (2444) 
synthetic

>  <status>  (2444) 
experimental

>  <tradename>  (2444) 
nan

>  <SMILES>  (2444) 
N#Cc1c(Cl)c(C#N)c(Cl)c(Cl)c1Cl

>  <standardized_failed>  (2444) 
False

$$$$

     RDKit          2D

 22 21  0  0  0  0  0  0  0  0999 V2000
    9.1000   -2.8667    0.0000 C   0  0  0  0  0  0  0  0  0  0  0  0
    9.5167   -2.1542    0.0000 O   0  0  0  0  0  0  0  0  0  0  0  0
    4.9917   -1.4292    0.0000 C   0  0  0  0  0  0  0  0  0  0  0  0
    4.1667   -1.4292    0.0000 C   0  0  0  0  0  0  0  0  0  0  0  0
    5.8125   -1.4292    0.0000 C   0  0  0  0  0  0  0  0  0  0  0  0
    1.7000   -1.4250    0.0000 C   0  0  0  0  0  0  0  0  0  0  0  0
    3.3417   -1.4292    0.0000 C   0  0  0  0  0  0  0  0  0  0  0  0
    2.5167   -1.4292    0.0000 C   0  0  0  0  0  0  0  0  0  0  0  0
    6.6292   -1.4375    0.0000 C   0  0  0  0  0  0  0  0  0  0  0  0
    0.8750   -1.4250    0.0000 C   0  0  0  0  0  0  0  0  0  0  0  0
    9.5125   -3.5875    0.0000 O   0  0  0  0  0  0  0  0  0  0  0  0
    3.7500   -2.1417    0.0000 C   0  0  0  0  0  0  0  0  0  0  0  0
    2.1042   -2.1417    0.0000 C   0  0  0  0  0  0  0  0  0  0  0  0
    5.4000   -2.1417    0.0000 C   0  0  0  0  0  0  0  0  0  0  0  0
    8.2750   -2.8667    0.0000 C   0  0  0  0  0  0  0  0  0  0  0  0
    0.4542   -2.1417    0.0000 C   0  0  0  0  0  0  0  0  0  0  0  0
    7.0417   -2.1500    0.0000 C   0  0  0  0  0  0  0  0  0  0  0  0
    7.8667   -2.1542    0.0000 C   0  0  0  0  0  0  0  0  0  0  0  0
   -0.3708   -2.1417    0.0000 C   0  0  0  0  0  0  0  0  0  0  0  0
   -1.6083   -2.8500    0.0000 C   0  0  0  0  0  0  0  0  0  0  0  0
   -0.7833   -2.8542    0.0000 C   0  0  0  0  0  0  0  0  0  0  0  0
   -2.0208   -2.1375    0.0000 C   0  0  0  0  0  0  0  0  0  0  0  0
  2  1  2  0
  3 14  1  0
  4  3  2  0
  5  9  2  0
  6 13  1  0
  7 12  1  0
  8  7  2  0
  9 17  1  0
 10  6  2  0
 11  1  1  0
 12  4  1  0
 13  8  1  0
 14  5  1  0
 15  1  1  0
 16 10  1  0
 17 18  1  0
 18 15  1  0
 19 16  1  0
 20 21  1  0
 21 19  1  0
 22 20  1  0
M  END
>  <ID>  (2445) 


>  <MOLENAME>  (2445) 
ARACHIDONIC ACID

>  <therap>  (2445) 
stimulates NO biosynthesis, vasodilator

>  <ref>  (2445) 
J Pharmacol Exp Ther 258:452 (1991); 304:139 (2003); J Lipid Res 40:2177 (1999); Curr Med Chem 14:1940 (2007)

>  <cas#>  (2445) 
506-32-1

>  <source>  (2445) 
widespread in animal tissue

>  <status>  (2445) 
experimental

>  <tradename>  (2445) 
nan

>  <SMILES>  (2445) 
CCCCC/C=C\C/C=C\C/C=C\C/C=C\CCCC(=O)O

>  <standardized_failed>  (2445) 
False

$$$$

     RDKit          2D

 66 74  0  0  0  0  0  0  0  0999 V2000
    2.3750   -4.7500    0.0000 C   0  0  0  0  0  0  0  0  0  0  0  0
    2.3792   -3.9167    0.0000 C   0  0  0  0  0  0  0  0  0  0  0  0
    3.0917   -6.2375    0.0000 C   0  0  0  0  0  0  0  0  0  0  0  0
    1.6625   -3.5042    0.0000 C   0  0  0  0  0  0  0  0  0  0  0  0
    3.8042   -6.6417    0.0000 C   0  0  0  0  0  0  0  0  0  0  0  0
    3.0917   -5.1625    0.0000 C   0  0  0  0  0  0  0  0  0  0  0  0
    1.6667   -2.4292    0.0000 C   0  0  0  0  0  0  0  0  0  0  0  0
    3.8042   -7.4792    0.0000 C   0  0  0  0  0  0  0  0  0  0  0  0
    3.0917   -3.4917    0.0000 O   0  0  0  0  0  0  0  0  0  0  0  0
    0.9500   -2.0167    0.0000 C   0  0  0  0  0  0  0  0  0  0  0  0
    4.5250   -6.2292    0.0000 O   0  0  0  0  0  0  0  0  0  0  0  0
    1.6667   -0.7667    0.0000 O   0  0  0  0  0  0  0  0  0  0  0  0
    3.8167   -3.9167    0.0000 C   0  0  0  0  0  0  0  0  0  0  0  0
    2.3917   -1.1875    0.0000 C   0  0  0  0  0  0  0  0  0  0  0  0
    0.9542   -1.1875    0.0000 C   0  0  0  0  0  0  0  0  0  0  0  0
    3.8167   -4.7500    0.0000 C   0  0  0  0  0  0  0  0  0  0  0  0
    2.3917   -2.0167    0.0000 C   0  0  0  0  0  0  0  0  0  0  0  0
    1.6625   -5.1542    0.0000 C   0  0  0  0  0  0  0  0  0  0  0  0
    0.9500   -3.9167    0.0000 C   0  0  0  0  0  0  0  0  0  0  0  0
    2.3792   -6.6500    0.0000 C   0  0  0  0  0  0  0  0  0  0  0  0
    4.5292   -3.5042    0.0000 C   0  0  0  0  0  0  0  0  0  0  0  0
    3.1042   -0.7792    0.0000 C   0  0  0  0  0  0  0  0  0  0  0  0
    5.2417   -6.6500    0.0000 C   0  0  0  0  0  0  0  0  0  0  0  0
    5.9625   -6.2375    0.0000 C   0  0  0  0  0  0  0  0  0  0  0  0
    0.2375   -2.4292    0.0000 C   0  0  0  0  0  0  0  0  0  0  0  0
    3.0917   -7.8917    0.0000 C   0  0  0  0  0  0  0  0  0  0  0  0
    4.5167   -7.8917    0.0000 C   0  0  0  0  0  0  0  0  0  0  0  0
    0.9500   -4.7417    0.0000 C   0  0  0  0  0  0  0  0  0  0  0  0
    7.3917   -5.4167    0.0000 C   0  0  0  0  0  0  0  0  0  0  0  0
    5.9625   -2.6875    0.0000 C   0  0  0  0  0  0  0  0  0  0  0  0
    4.5375    0.0458    0.0000 C   0  0  0  0  0  0  0  0  0  0  0  0
    2.3792   -7.4792    0.0000 C   0  0  0  0  0  0  0  0  0  0  0  0
    5.9542   -3.5167    0.0000 C   0  0  0  0  0  0  0  0  0  0  0  0
    6.6750   -5.0042    0.0000 C   0  0  0  0  0  0  0  0  0  0  0  0
    5.2417   -2.2750    0.0000 C   0  0  0  0  0  0  0  0  0  0  0  0
    4.5292   -0.7875    0.0000 C   0  0  0  0  0  0  0  0  0  0  0  0
    7.3875   -6.2417    0.0000 C   0  0  0  0  0  0  0  0  0  0  0  0
    3.8167    0.4583    0.0000 C   0  0  0  0  0  0  0  0  0  0  0  0
    5.2417   -7.4792    0.0000 C   0  0  0  0  0  0  0  0  0  0  0  0
    5.2417   -3.9250    0.0000 C   0  0  0  0  0  0  0  0  0  0  0  0
    4.5292   -2.6875    0.0000 C   0  0  0  0  0  0  0  0  0  0  0  0
    3.8167   -1.1917    0.0000 C   0  0  0  0  0  0  0  0  0  0  0  0
    3.1042    0.0458    0.0000 C   0  0  0  0  0  0  0  0  0  0  0  0
    5.9625   -5.4167    0.0000 C   0  0  0  0  0  0  0  0  0  0  0  0
    6.6750   -6.6542    0.0000 C   0  0  0  0  0  0  0  0  0  0  0  0
    0.2375   -0.7750    0.0000 C   0  0  0  0  0  0  0  0  0  0  0  0
   -0.4750   -2.0167    0.0000 C   0  0  0  0  0  0  0  0  0  0  0  0
   -0.4750   -1.1875    0.0000 C   0  0  0  0  0  0  0  0  0  0  0  0
    4.5292   -5.1667    0.0000 O   0  0  0  0  0  0  0  0  0  0  0  0
    3.1042   -2.4375    0.0000 O   0  0  0  0  0  0  0  0  0  0  0  0
    1.6750   -5.7750    0.0000 O   0  0  0  0  0  0  0  0  0  0  0  0
    0.5125   -3.5667    0.0000 O   0  0  0  0  0  0  0  0  0  0  0  0
    1.9417   -6.3000    0.0000 O   0  0  0  0  0  0  0  0  0  0  0  0
    0.2417   -2.8042    0.0000 O   0  0  0  0  0  0  0  0  0  0  0  0
    8.1000   -5.0000    0.0000 O   0  0  0  0  0  0  0  0  0  0  0  0
    6.6750   -2.2667    0.0000 O   0  0  0  0  0  0  0  0  0  0  0  0
    5.2500    0.4583    0.0000 O   0  0  0  0  0  0  0  0  0  0  0  0
    3.0917   -8.7167    0.0000 O   0  0  0  0  0  0  0  0  0  0  0  0
    6.7000   -4.4917    0.0000 O   0  0  0  0  0  0  0  0  0  0  0  0
    6.6667   -3.9292    0.0000 O   0  0  0  0  0  0  0  0  0  0  0  0
    3.8167    1.2833    0.0000 O   0  0  0  0  0  0  0  0  0  0  0  0
    8.0917   -6.6542    0.0000 O   0  0  0  0  0  0  0  0  0  0  0  0
    4.9875   -1.0000    0.0000 O   0  0  0  0  0  0  0  0  0  0  0  0
    5.2042   -1.7167    0.0000 O   0  0  0  0  0  0  0  0  0  0  0  0
    5.9542   -7.8917    0.0000 O   0  0  0  0  0  0  0  0  0  0  0  0
   -1.1875   -0.7792    0.0000 O   0  0  0  0  0  0  0  0  0  0  0  0
  2  1  2  0
  6  3  1  1
  4  2  1  0
  5  3  1  0
  6  1  1  0
  7  4  1  1
  8  5  2  0
  9  2  1  0
 10  7  1  0
 11  5  1  0
 14 12  1  6
 13 16  1  0
 14 17  1  0
 15 10  2  0
 16  6  1  0
 17  7  1  0
 18  1  1  0
 19 28  1  0
 20  3  2  0
 13 21  1  0
 14 22  1  0
 23 11  1  6
 23 24  1  0
 25 10  1  0
 26 32  2  0
 27  8  1  0
 28 18  2  0
 29 37  2  0
 30 35  2  0
 31 38  2  0
 32 20  1  0
 33 40  2  0
 34 44  2  0
 35 41  1  0
 36 42  2  0
 37 45  1  0
 38 43  1  0
 39 23  1  0
 40 21  1  0
 41 21  2  0
 42 22  1  0
 43 22  2  0
 44 24  1  0
 45 24  2  0
 46 15  1  0
 47 25  2  0
 48 47  1  0
 16 49  1  6
 17 50  1  6
 51 18  1  0
 52 19  1  0
 53 20  1  0
 54 25  1  0
 55 29  1  0
 56 30  1  0
 57 31  1  0
 58 26  1  0
 59 34  1  0
 60 33  1  0
 61 38  1  0
 62 37  1  0
 63 36  1  0
 64 35  1  0
 39 65  1  6
 66 48  1  0
  4 19  2  0
 13  9  1  6
 26  8  1  0
 15 12  1  0
 33 30  1  0
 27 39  1  0
 46 48  2  0
 34 29  1  0
 36 31  1  0
M  END
>  <ID>  (2446) 


>  <MOLENAME>  (2446) 
KATACINE

>  <therap>  (2446) 
antioxidant, antihypoxic polymeric proanthocyanidins

>  <ref>  (2446) 
Chem Nat Comp 1: 59 (1962)

>  <cas#>  (2446) 
nan

>  <source>  (2446) 
Fabaceae spp (trimer shown)

>  <status>  (2446) 
experimental

>  <tradename>  (2446) 
nan

>  <SMILES>  (2446) 
Oc1cc2c(c(O)c1)[C@H](c1c(O)cc(O)c3c1O[C@H](c1cc(O)c(O)c(O)c1)[C@H](O)[C@H]3c1c(O)cc(O)c3c1O[C@H](c1cc(O)c(O)c(O)c1)[C@H](O)C3)[C@@H](O)[C@@H](c1cc(O)c(O)c(O)c1)O2

>  <standardized_failed>  (2446) 
False

$$$$

     RDKit          2D

 19 19  0  0  0  0  0  0  0  0999 V2000
    2.1625   -0.6500    0.0000 C   0  0  0  0  0  0  0  0  0  0  0  0
    2.8750   -1.0667    0.0000 N   0  0  0  0  0  0  0  0  0  0  0  0
    3.5917   -0.6542    0.0000 C   0  0  0  0  0  0  0  0  0  0  0  0
    0.7292   -0.6417    0.0000 N   0  0  0  0  0  0  0  0  0  0  0  0
    1.4417   -1.0625    0.0000 C   0  0  0  0  0  0  0  0  0  0  0  0
    2.1667    0.1750    0.0000 O   0  0  0  0  0  0  0  0  0  0  0  0
    4.3000   -1.0667    0.0000 C   0  0  0  0  0  0  0  0  0  0  0  0
    3.5875    0.1708    0.0000 C   0  0  0  0  0  0  0  0  0  0  0  0
    6.1667   -0.8750    0.0000 Cl  0  0  0  0  0  0  0  0  0  0  0  0
    0.7292    0.1833    0.0000 C   0  0  0  0  0  0  0  0  0  0  0  0
    0.0250   -1.0625    0.0000 C   0  0  0  0  0  0  0  0  0  0  0  0
    5.0167    0.1625    0.0000 C   0  0  0  0  0  0  0  0  0  0  0  0
    1.4417   -1.8875    0.0000 C   0  0  0  0  0  0  0  0  0  0  0  0
    5.0167   -0.6625    0.0000 C   0  0  0  0  0  0  0  0  0  0  0  0
    4.3000    0.5833    0.0000 C   0  0  0  0  0  0  0  0  0  0  0  0
    4.2917   -1.8917    0.0000 C   0  0  0  0  0  0  0  0  0  0  0  0
    2.8750    0.5750    0.0000 C   0  0  0  0  0  0  0  0  0  0  0  0
    0.0250   -1.8875    0.0000 C   0  0  0  0  0  0  0  0  0  0  0  0
    0.7292   -2.2917    0.0000 C   0  0  0  0  0  0  0  0  0  0  0  0
  2  1  1  0
  3  2  1  0
  4  5  1  0
  5  1  1  0
  6  1  2  0
  7  3  2  0
  8  3  1  0
 10  4  1  0
 11  4  1  0
 12 15  1  0
 13  5  1  0
 14  7  1  0
 15  8  2  0
 16  7  1  0
 17  8  1  0
 18 19  1  0
 19 13  1  0
 11 18  1  0
 14 12  2  0
M  END
>  <ID>  (2447) 


>  <MOLENAME>  (2447) 
MEPIVACAINE HYDROCHLORIDE

>  <therap>  (2447) 
anesthetic (local)

>  <ref>  (2447) 
Mol Pharmacol 54: 162 (1998)

>  <cas#>  (2447) 
1722-62-9, 96-88-8 [mepivacaine]

>  <source>  (2447) 
synthetic

>  <status>  (2447) 
USP, INN, BAN, JAN

>  <tradename>  (2447) 
CARBOCAINE

>  <SMILES>  (2447) 
Cc1c(NC(=O)C2CCCCN2C)c(C)ccc1

>  <standardized_failed>  (2447) 
False

$$$$

     RDKit          2D

 26 29  0  0  0  0  0  0  0  0999 V2000
    7.5250   -0.5250    0.0000 N   0  0  0  0  0  0  0  0  0  0  0  0
    8.2417   -1.7667    0.0000 C   0  0  0  0  0  0  0  0  0  0  0  0
    6.8125   -0.9375    0.0000 C   0  0  0  0  0  0  0  0  0  0  0  0
    6.0917   -0.5250    0.0000 C   0  0  0  0  0  0  0  0  0  0  0  0
    8.2417   -0.9375    0.0000 C   0  0  0  0  0  0  0  0  0  0  0  0
    7.5250   -2.1792    0.0000 C   0  0  0  0  0  0  0  0  0  0  0  0
    6.8125   -1.7667    0.0000 C   0  0  0  0  0  0  0  0  0  0  0  0
    8.9542   -2.1792    0.0000 C   0  0  0  0  0  0  0  0  0  0  0  0
    6.0917    0.3083    0.0000 C   0  0  0  0  0  0  0  0  0  0  0  0
    5.3792   -0.9375    0.0000 C   0  0  0  0  0  0  0  0  0  0  0  0
    4.6667   -0.5250    0.0000 C   0  0  0  0  0  0  0  0  0  0  0  0
    5.3792    0.7208    0.0000 C   0  0  0  0  0  0  0  0  0  0  0  0
    4.6667    0.3083    0.0000 C   0  0  0  0  0  0  0  0  0  0  0  0
    7.5250    0.3083    0.0000 C   0  0  0  0  0  0  0  0  0  0  0  0
    8.9542   -3.0042    0.0000 C   0  0  0  0  0  0  0  0  0  0  0  0
    6.8125    0.7208    0.0000 C   0  0  0  0  0  0  0  0  0  0  0  0
    7.5250   -3.0042    0.0000 C   0  0  0  0  0  0  0  0  0  0  0  0
    8.2375   -3.4167    0.0000 C   0  0  0  0  0  0  0  0  0  0  0  0
    9.6792   -1.7542    0.0000 O   0  0  0  0  0  0  0  0  0  0  0  0
    3.9417   -0.9417    0.0000 O   0  0  0  0  0  0  0  0  0  0  0  0
    3.9417    0.7250    0.0000 O   0  0  0  0  0  0  0  0  0  0  0  0
    9.6792   -3.4250    0.0000 O   0  0  0  0  0  0  0  0  0  0  0  0
   10.3958   -2.1667    0.0000 C   0  0  0  0  0  0  0  0  0  0  0  0
    3.9500   -1.7750    0.0000 C   0  0  0  0  0  0  0  0  0  0  0  0
    3.9500    1.5583    0.0000 C   0  0  0  0  0  0  0  0  0  0  0  0
   10.4042   -3.0042    0.0000 C   0  0  0  0  0  0  0  0  0  0  0  0
  2  5  1  0
  3  1  1  0
  4  3  1  0
  5  1  1  0
  6  2  2  0
  7  3  1  0
  8  2  1  0
  9 16  1  0
 10  4  2  0
 11 10  1  0
 12  9  2  0
 13 12  1  0
 14  1  1  0
 15  8  2  0
 16 14  1  0
 17  6  1  0
 18 15  1  0
 19  8  1  0
 20 11  1  0
 21 13  1  0
 22 15  1  0
 23 19  1  0
 24 20  1  0
 25 21  1  0
 26 22  1  0
  7  6  1  0
  4  9  1  0
 11 13  2  0
 17 18  2  0
M  END
>  <ID>  (2448) 


>  <MOLENAME>  (2448) 
TETRAHYDROPALMATINE

>  <therap>  (2448) 
analgesic, hypnotic, papaverine-like

>  <ref>  (2448) 
Ber 56: 875 (1923); J Org Chem 33: 2785 (1968)

>  <cas#>  (2448) 
2934-97-6

>  <source>  (2448) 
Corydalis spp

>  <status>  (2448) 
experimental

>  <tradename>  (2448) 
nan

>  <SMILES>  (2448) 
COc1c(OC)cc2c(c1)CCN1Cc3c(ccc(OC)c3OC)CC21

>  <standardized_failed>  (2448) 
False

$$$$

     RDKit          2D

 12 13  0  0  0  0  0  0  0  0999 V2000
    4.4167   -2.4792    0.0000 C   0  0  0  0  0  0  0  0  0  0  0  0
    3.7000   -2.8917    0.0000 N   0  0  0  0  0  0  0  0  0  0  0  0
    4.4167   -1.6542    0.0000 C   0  0  0  0  0  0  0  0  0  0  0  0
    2.9875   -2.4792    0.0000 C   0  0  0  0  0  0  0  0  0  0  0  0
    2.9875   -1.6542    0.0000 N   0  0  0  0  0  0  0  0  0  0  0  0
    3.7000   -1.2417    0.0000 C   0  0  0  0  0  0  0  0  0  0  0  0
    5.2000   -1.3917    0.0000 N   0  0  0  0  0  0  0  0  0  0  0  0
    5.2042   -2.7292    0.0000 N   0  0  0  0  0  0  0  0  0  0  0  0
    5.6917   -2.0542    0.0000 C   0  0  0  0  0  0  0  0  0  0  0  0
    2.2667   -2.8917    0.0000 O   0  0  0  0  0  0  0  0  0  0  0  0
    3.6917   -0.4167    0.0000 O   0  0  0  0  0  0  0  0  0  0  0  0
    3.7042   -3.7167    0.0000 C   0  0  0  0  0  0  0  0  0  0  0  0
  2  1  1  0
  3  1  2  0
  4  2  1  0
  5  6  1  0
  6  3  1  0
  7  3  1  0
  8  1  1  0
  9  8  1  0
 10  4  2  0
 11  6  2  0
 12  2  1  0
  9  7  2  0
  5  4  1  0
M  END
>  <ID>  (2449) 


>  <MOLENAME>  (2449) 
3-METHYLXANTHINE

>  <therap>  (2449) 
phosphodiesterase inhibitor

>  <ref>  (2449) 
Clin Exp Pharmacol Physiol 18: 163 (1991)

>  <cas#>  (2449) 
1076-22-8

>  <source>  (2449) 
synthetic

>  <status>  (2449) 
experimental

>  <tradename>  (2449) 
nan

>  <SMILES>  (2449) 
Cn1c(=O)[nH]c(=O)c2c1[nH]cn2

>  <standardized_failed>  (2449) 
False

$$$$

     RDKit          2D

 26 27  0  0  0  0  0  0  0  0999 V2000
    5.6042   -1.9042    0.0000 S   0  0  0  0  0  0  0  0  0  0  0  0
    3.3042    0.0208    0.0000 C   0  0  0  0  0  0  0  0  0  0  0  0
    4.0167    0.4250    0.0000 C   0  0  0  0  0  0  0  0  0  0  0  0
    3.2917   -0.8125    0.0000 C   0  0  0  0  0  0  0  0  0  0  0  0
    4.7292    0.0083    0.0000 C   0  0  0  0  0  0  0  0  0  0  0  0
    2.5792   -1.2250    0.0000 C   0  0  0  0  0  0  0  0  0  0  0  0
    5.4417    0.4208    0.0000 C   0  0  0  0  0  0  0  0  0  0  0  0
    4.0167    1.2500    0.0000 C   0  0  0  0  0  0  0  0  0  0  0  0
    4.0125   -1.2292    0.0000 C   0  0  0  0  0  0  0  0  0  0  0  0
    5.4417    1.2500    0.0000 C   0  0  0  0  0  0  0  0  0  0  0  0
    6.2667   -1.9042    0.0000 O   0  0  0  0  0  0  0  0  0  0  0  0
    5.6042   -2.5667    0.0000 O   0  0  0  0  0  0  0  0  0  0  0  0
    4.7292   -0.8167    0.0000 C   0  0  0  0  0  0  0  0  0  0  0  0
    4.7292    1.6625    0.0000 C   0  0  0  0  0  0  0  0  0  0  0  0
    5.6042   -1.2417    0.0000 O   0  0  0  0  0  0  0  0  0  0  0  0
    4.9500   -1.9042    0.0000 O   0  0  0  0  0  0  0  0  0  0  0  0
    2.5917    0.4375    0.0000 C   0  0  0  0  0  0  0  0  0  0  0  0
    6.1542    1.6708    0.0000 C   0  0  0  0  0  0  0  0  0  0  0  0
    3.3000    0.8458    0.0000 C   0  0  0  0  0  0  0  0  0  0  0  0
    3.8125   -1.9375    0.0000 N   0  0  0  0  0  0  0  0  0  0  0  0
    2.9875   -1.9375    0.0000 C   0  0  0  0  0  0  0  0  0  0  0  0
    1.8625   -0.8000    0.0000 C   0  0  0  0  0  0  0  0  0  0  0  0
    1.8667    0.0333    0.0000 C   0  0  0  0  0  0  0  0  0  0  0  0
    1.9917   -1.8042    0.0000 C   0  0  0  0  0  0  0  0  0  0  0  0
    6.1500    2.4958    0.0000 C   0  0  0  0  0  0  0  0  0  0  0  0
    6.8750    1.2625    0.0000 C   0  0  0  0  0  0  0  0  0  0  0  0
  3  2  1  0
  4  2  1  0
  5  3  2  0
  6  4  1  0
  7  5  1  0
  8  3  1  0
  9  4  1  0
 10 14  1  0
 11  1  2  0
 12  1  2  0
 13  9  1  0
 14  8  2  0
 15  1  1  0
 16  1  1  0
 17  2  1  0
 18 10  1  0
  2 19  1  1
 20 21  1  0
  6 21  1  0
 22 23  1  0
 23 17  1  0
  6 24  1  1
 25 18  1  0
 26 18  1  0
 22  6  1  0
  5 13  1  0
  7 10  2  0
M  END
>  <ID>  (2450) 


>  <MOLENAME>  (2450) 
18-AMINOABIETA-8.11.13-TRIENE SULFATE

>  <therap>  (2450) 
nan

>  <ref>  (2450) 
nan

>  <cas#>  (2450) 
nan

>  <source>  (2450) 
derivative of abietic acid

>  <status>  (2450) 
undetermined activity

>  <tradename>  (2450) 
nan

>  <SMILES>  (2450) 
CC(C)c1cc2c(cc1)[C@@]1(C)CCC[C@@](C)(CN)C1CC2

>  <standardized_failed>  (2450) 
False

$$$$

     RDKit          2D

 30 35  0  0  0  0  0  0  0  0999 V2000
    4.4667   -0.4292    0.0000 C   0  0  0  0  0  0  0  0  0  0  0  0
    3.1542   -1.0042    0.0000 C   0  0  0  0  0  0  0  0  0  0  0  0
    3.6417   -0.3417    0.0000 C   0  0  0  0  0  0  0  0  0  0  0  0
    5.2917   -0.4292    0.0000 O   0  0  0  0  0  0  0  0  0  0  0  0
    1.4500   -2.3042    0.0000 C   0  0  0  0  0  0  0  0  0  0  0  0
    2.1625   -1.8917    0.0000 C   0  0  0  0  0  0  0  0  0  0  0  0
    4.2125    0.3500    0.0000 C   0  0  0  0  0  0  0  0  0  0  0  0
    3.4875   -1.7667    0.0000 C   0  0  0  0  0  0  0  0  0  0  0  0
    1.4417   -3.1292    0.0000 C   0  0  0  0  0  0  0  0  0  0  0  0
    2.8750   -2.3042    0.0000 C   0  0  0  0  0  0  0  0  0  0  0  0
    4.8792    0.8333    0.0000 C   0  0  0  0  0  0  0  0  0  0  0  0
    5.5500    0.3458    0.0000 C   0  0  0  0  0  0  0  0  0  0  0  0
    2.3375   -1.0917    0.0000 C   0  0  0  0  0  0  0  0  0  0  0  0
    4.9667    1.6583    0.0000 N   0  0  0  0  0  0  0  0  0  0  0  0
    4.8000   -1.1917    0.0000 C   0  0  0  0  0  0  0  0  0  0  0  0
    2.1542   -3.5417    0.0000 C   0  0  0  0  0  0  0  0  0  0  0  0
    2.8750   -3.1375    0.0000 C   0  0  0  0  0  0  0  0  0  0  0  0
    4.3042   -1.8542    0.0000 C   0  0  0  0  0  0  0  0  0  0  0  0
    0.7375   -1.8917    0.0000 C   0  0  0  0  0  0  0  0  0  0  0  0
    0.7375   -3.5417    0.0000 C   0  0  0  0  0  0  0  0  0  0  0  0
    6.3000    0.6833    0.0000 C   0  0  0  0  0  0  0  0  0  0  0  0
    5.7167    1.9875    0.0000 C   0  0  0  0  0  0  0  0  0  0  0  0
    0.0292   -2.3042    0.0000 C   0  0  0  0  0  0  0  0  0  0  0  0
    3.2167    0.2833    0.0000 C   0  0  0  0  0  0  0  0  0  0  0  0
    0.0292   -3.1292    0.0000 C   0  0  0  0  0  0  0  0  0  0  0  0
    1.4417   -1.4792    0.0000 C   0  0  0  0  0  0  0  0  0  0  0  0
    6.3917    1.5000    0.0000 C   0  0  0  0  0  0  0  0  0  0  0  0
    3.5542    0.8750    0.0000 C   0  0  0  0  0  0  0  0  0  0  0  0
   -0.6875   -3.5417    0.0000 O   0  0  0  0  0  0  0  0  0  0  0  0
    7.1417    1.8333    0.0000 C   0  0  0  0  0  0  0  0  0  0  0  0
  2  3  2  0
  3  1  1  0
  4  1  1  0
  5  6  1  0
  6 13  1  0
  7  1  1  0
  8 18  1  1
  9  5  1  0
 10  8  1  0
 11  7  1  0
 12  4  1  0
 13  2  1  0
 11 14  1  6
  1 15  1  6
 16 17  1  0
 10 17  1  6
 18 15  1  0
 19  5  1  0
 20  9  1  0
 12 21  1  1
 22 14  1  0
 23 19  1  0
 24  3  1  0
 25 23  1  0
  5 26  1  1
 27 21  1  0
  7 28  1  6
 25 29  1  1
 27 30  1  1
 11 12  1  0
  2  8  1  0
  6 10  1  0
 27 22  1  0
  9 16  2  0
 20 25  1  0
M  END
>  <ID>  (2451) 


>  <MOLENAME>  (2451) 
CYCLOPAMINE

>  <therap>  (2451) 
antineoplastic, inhibits Hh signaling pathway

>  <ref>  (2451) 
Eur J Dermatology 14:96 (2004); Dermatology 209: (2004); Bioorganic & Med Chem Lttrs 18:1359 (2008)

>  <cas#>  (2451) 
4449-51-8

>  <source>  (2451) 
Veratrum californicum 

>  <status>  (2451) 
experimental

>  <tradename>  (2451) 
nan

>  <SMILES>  (2451) 
CC1=C2CC3[C@@H](CC=C4C[C@@H](O)CC[C@@]43C)[C@@H]2CC[C@]12O[C@@H]1C[C@H](C)CN[C@H]1[C@H]2C

>  <standardized_failed>  (2451) 
False

$$$$

     RDKit          2D

 16 17  0  0  0  0  0  0  0  0999 V2000
    6.8208   -5.3375    0.0000 C   0  0  0  0  0  0  0  0  0  0  0  0
    6.1250   -6.4750    0.0000 N   0  0  0  0  0  0  0  0  0  0  0  0
    6.8833   -6.1500    0.0000 C   0  0  0  0  0  0  0  0  0  0  0  0
    6.0250   -5.1500    0.0000 C   0  0  0  0  0  0  0  0  0  0  0  0
    8.8625   -4.8000    0.0000 C   0  0  0  0  0  0  0  0  0  0  0  0
    7.4417   -4.8000    0.0000 C   0  0  0  0  0  0  0  0  0  0  0  0
    5.6042   -5.8708    0.0000 C   0  0  0  0  0  0  0  0  0  0  0  0
    8.1583   -5.2125    0.0000 C   0  0  0  0  0  0  0  0  0  0  0  0
    8.8625   -3.9917    0.0000 O   0  0  0  0  0  0  0  0  0  0  0  0
    8.1583   -6.0333    0.0000 N   0  0  0  0  0  0  0  0  0  0  0  0
    9.5750   -5.2125    0.0000 O   0  0  0  0  0  0  0  0  0  0  0  0
    5.6167   -4.4208    0.0000 C   0  0  0  0  0  0  0  0  0  0  0  0
    4.7708   -5.8625    0.0000 C   0  0  0  0  0  0  0  0  0  0  0  0
    8.8708   -6.4458    0.0000 C   0  0  0  0  0  0  0  0  0  0  0  0
    4.7833   -4.4125    0.0000 C   0  0  0  0  0  0  0  0  0  0  0  0
    4.3583   -5.1333    0.0000 C   0  0  0  0  0  0  0  0  0  0  0  0
  2  3  1  0
  3  1  2  0
  4  1  1  0
  5  8  1  0
  6  1  1  0
  7  4  2  0
  8  6  1  1
  9  5  2  0
 10  8  1  0
 11  5  1  0
 12  4  1  0
 13  7  1  0
 14 10  1  0
 15 12  2  0
 16 15  1  0
  2  7  1  0
 16 13  2  0
M  END
>  <ID>  (2452) 


>  <MOLENAME>  (2452) 
ABRINE

>  <therap>  (2452) 
inhibits cataract formation

>  <ref>  (2452) 
J Indian Chem.Soc 9:383 (1932); Science. 95:584 (1942); J Nutrition  25:471 (1943)

>  <cas#>  (2452) 
526-31-8

>  <source>  (2452) 
Abrus pecatorius

>  <status>  (2452) 
experimental

>  <tradename>  (2452) 
nan

>  <SMILES>  (2452) 
CN[C@@H](Cc1c[nH]c2c1cccc2)C(=O)O

>  <standardized_failed>  (2452) 
False

$$$$

     RDKit          2D

 15 17  0  0  0  0  0  0  0  0999 V2000
    4.9917   -0.8333    0.0000 N   0  0  0  0  0  0  0  0  0  0  0  0
    4.2083   -1.0917    0.0000 C   0  0  0  0  0  0  0  0  0  0  0  0
    5.4792   -1.5042    0.0000 C   0  0  0  0  0  0  0  0  0  0  0  0
    4.2083   -1.9167    0.0000 C   0  0  0  0  0  0  0  0  0  0  0  0
    4.9875   -2.1708    0.0000 C   0  0  0  0  0  0  0  0  0  0  0  0
    6.6333   -2.3500    0.0000 N   0  0  0  0  0  0  0  0  0  0  0  0
    6.3000   -1.5875    0.0000 C   0  0  0  0  0  0  0  0  0  0  0  0
    3.4917   -0.6792    0.0000 C   0  0  0  0  0  0  0  0  0  0  0  0
    3.4917   -2.3333    0.0000 C   0  0  0  0  0  0  0  0  0  0  0  0
    2.7792   -1.0917    0.0000 C   0  0  0  0  0  0  0  0  0  0  0  0
    6.1417   -3.0167    0.0000 C   0  0  0  0  0  0  0  0  0  0  0  0
    2.7792   -1.9208    0.0000 C   0  0  0  0  0  0  0  0  0  0  0  0
    5.3208   -2.9250    0.0000 C   0  0  0  0  0  0  0  0  0  0  0  0
    2.0667   -0.6833    0.0000 O   0  0  0  0  0  0  0  0  0  0  0  0
    6.7875   -0.9250    0.0000 C   0  0  0  0  0  0  0  0  0  0  0  0
  2  1  1  0
  3  1  1  0
  4  2  2  0
  5  3  1  0
  6  7  2  0
  7  3  1  0
  8  2  1  0
  9  4  1  0
 10  8  2  0
 11  6  1  0
 12  9  2  0
 13  5  1  0
 14 10  1  0
 15  7  1  0
  5  4  1  0
 11 13  1  0
 12 10  1  0
M  END
>  <ID>  (2453) 


>  <MOLENAME>  (2453) 
HARMALOL

>  <therap>  (2453) 
neuroprotective

>  <ref>  (2453) 
Eur J Neurosci 13:1861 (2001)

>  <cas#>  (2453) 
525-57-5

>  <source>  (2453) 
Peganum harmala seeds

>  <status>  (2453) 
experimental

>  <tradename>  (2453) 
nan

>  <SMILES>  (2453) 
CC1=NCCC2c3c(cc(O)cc3)NC12

>  <standardized_failed>  (2453) 
False

$$$$

     RDKit          2D

 15 17  0  0  0  0  0  0  0  0999 V2000
    4.9917   -0.8333    0.0000 N   0  0  0  0  0  0  0  0  0  0  0  0
    4.2083   -1.0917    0.0000 C   0  0  0  0  0  0  0  0  0  0  0  0
    5.4792   -1.5042    0.0000 C   0  0  0  0  0  0  0  0  0  0  0  0
    4.2083   -1.9167    0.0000 C   0  0  0  0  0  0  0  0  0  0  0  0
    4.9875   -2.1708    0.0000 C   0  0  0  0  0  0  0  0  0  0  0  0
    3.4917   -0.6792    0.0000 C   0  0  0  0  0  0  0  0  0  0  0  0
    3.4917   -2.3333    0.0000 C   0  0  0  0  0  0  0  0  0  0  0  0
    6.3000   -1.5875    0.0000 C   0  0  0  0  0  0  0  0  0  0  0  0
    6.6333   -2.3500    0.0000 N   0  0  0  0  0  0  0  0  0  0  0  0
    2.7792   -1.0917    0.0000 C   0  0  0  0  0  0  0  0  0  0  0  0
    2.7792   -1.9208    0.0000 C   0  0  0  0  0  0  0  0  0  0  0  0
    6.1417   -3.0167    0.0000 C   0  0  0  0  0  0  0  0  0  0  0  0
    5.3208   -2.9250    0.0000 C   0  0  0  0  0  0  0  0  0  0  0  0
    2.0667   -0.6833    0.0000 O   0  0  0  0  0  0  0  0  0  0  0  0
    6.7875   -0.9250    0.0000 C   0  0  0  0  0  0  0  0  0  0  0  0
  2  1  1  0
  3  1  1  0
  4  2  2  0
  5  3  2  0
  6  2  1  0
  7  4  1  0
  8  3  1  0
  9  8  2  0
 10  6  2  0
 11  7  2  0
 12  9  1  0
 13  5  1  0
 14 10  1  0
 15  8  1  0
  5  4  1  0
 12 13  2  0
 11 10  1  0
M  END
>  <ID>  (2454) 


>  <MOLENAME>  (2454) 
HARMOL

>  <therap>  (2454) 
antineoplastic, apoptosis inducer

>  <ref>  (2454) 
Anticancer Drugs 2009:373

>  <cas#>  (2454) 
nan

>  <source>  (2454) 
nan

>  <status>  (2454) 
experimental

>  <tradename>  (2454) 
nan

>  <SMILES>  (2454) 
Cc1nccc2c1[nH]c1c2ccc(O)c1

>  <standardized_failed>  (2454) 
False

$$$$

     RDKit          2D

 18 21  0  0  0  0  0  0  0  0999 V2000
    4.8375   -0.2875    0.0000 N   0  0  0  0  0  0  0  0  0  0  0  0
    5.5375   -1.5333    0.0000 C   0  0  0  0  0  0  0  0  0  0  0  0
    5.5500   -0.7125    0.0000 C   0  0  0  0  0  0  0  0  0  0  0  0
    4.8250   -1.9333    0.0000 C   0  0  0  0  0  0  0  0  0  0  0  0
    4.1125   -1.5167    0.0000 C   0  0  0  0  0  0  0  0  0  0  0  0
    4.1167   -0.6917    0.0000 C   0  0  0  0  0  0  0  0  0  0  0  0
    4.8458    0.5375    0.0000 C   0  0  0  0  0  0  0  0  0  0  0  0
    4.8208   -2.7542    0.0000 N   0  0  0  0  0  0  0  0  0  0  0  0
    4.1375    0.9583    0.0000 O   0  0  0  0  0  0  0  0  0  0  0  0
    6.2500   -1.9375    0.0000 C   0  0  0  0  0  0  0  0  0  0  0  0
    3.4042   -1.9292    0.0000 C   0  0  0  0  0  0  0  0  0  0  0  0
    6.2708   -0.3083    0.0000 C   0  0  0  0  0  0  0  0  0  0  0  0
    4.1125   -3.1667    0.0000 C   0  0  0  0  0  0  0  0  0  0  0  0
    5.5333   -3.1708    0.0000 C   0  0  0  0  0  0  0  0  0  0  0  0
    5.5708    0.9458    0.0000 C   0  0  0  0  0  0  0  0  0  0  0  0
    6.2500   -2.7625    0.0000 C   0  0  0  0  0  0  0  0  0  0  0  0
    3.4042   -2.7542    0.0000 C   0  0  0  0  0  0  0  0  0  0  0  0
    6.2833    0.5208    0.0000 C   0  0  0  0  0  0  0  0  0  0  0  0
  2  3  1  0
  3  1  1  0
  4  2  1  0
  5  6  1  6
  6  1  1  0
  7  1  1  0
  4  8  1  6
  9  7  2  0
  2 10  1  6
  5 11  1  0
  3 12  1  1
 13  8  1  0
 14 16  1  0
 15  7  1  0
 16 10  1  0
 17 11  1  0
 18 15  1  0
  4  5  1  0
 18 12  1  0
 13 17  1  0
 14  8  1  0
M  END
>  <ID>  (2455) 


>  <MOLENAME>  (2455) 
MATRINE

>  <therap>  (2455) 
antifungal, nematocide

>  <ref>  (2455) 
J Nat Prod  44:236 (1981); J Agric Food Chem 39:189 (1991);  J Forestry Res 17:323 (2006); Basic Clin Pharmacol Toxicol 107:906 (2010)

>  <cas#>  (2455) 
519-02-8

>  <source>  (2455) 
Sophora angustifolia, S. flavescens

>  <status>  (2455) 
experimental

>  <tradename>  (2455) 
nan

>  <SMILES>  (2455) 
O=C1CCC[C@H]2[C@@H]3CCCN4CCC[C@H](CN12)[C@H]34

>  <standardized_failed>  (2455) 
False

$$$$

     RDKit          2D

 19 22  0  0  0  0  0  0  0  0999 V2000
    6.1167   -1.3208    0.0000 N   0  0  0  0  0  0  0  0  0  0  0  0
    6.8167   -2.5667    0.0000 C   0  0  0  0  0  0  0  0  0  0  0  0
    6.1000   -3.7917    0.0000 N   0  0  0  0  0  0  0  0  0  0  0  0
    6.1042   -2.9667    0.0000 C   0  0  0  0  0  0  0  0  0  0  0  0
    6.8292   -1.7458    0.0000 C   0  0  0  0  0  0  0  0  0  0  0  0
    5.3917   -2.5500    0.0000 C   0  0  0  0  0  0  0  0  0  0  0  0
    5.3958   -1.7250    0.0000 C   0  0  0  0  0  0  0  0  0  0  0  0
    6.1250   -0.4958    0.0000 C   0  0  0  0  0  0  0  0  0  0  0  0
    6.0917   -4.6125    0.0000 O   0  0  0  0  0  0  0  0  0  0  0  0
    5.4167   -0.0750    0.0000 O   0  0  0  0  0  0  0  0  0  0  0  0
    6.8125   -4.2042    0.0000 C   0  0  0  0  0  0  0  0  0  0  0  0
    5.3917   -4.1958    0.0000 C   0  0  0  0  0  0  0  0  0  0  0  0
    7.5292   -2.9708    0.0000 C   0  0  0  0  0  0  0  0  0  0  0  0
    4.6792   -2.9667    0.0000 C   0  0  0  0  0  0  0  0  0  0  0  0
    7.5500   -1.3417    0.0000 C   0  0  0  0  0  0  0  0  0  0  0  0
    6.8500   -0.0875    0.0000 C   0  0  0  0  0  0  0  0  0  0  0  0
    7.5292   -3.7958    0.0000 C   0  0  0  0  0  0  0  0  0  0  0  0
    4.6792   -3.7917    0.0000 C   0  0  0  0  0  0  0  0  0  0  0  0
    7.5625   -0.5125    0.0000 C   0  0  0  0  0  0  0  0  0  0  0  0
  2  5  1  0
  4  3  1  6
  4  2  1  0
  5  1  1  0
  6  7  1  6
  7  1  1  0
  8  1  1  0
  9  3  1  0
 10  8  2  0
 11 17  1  0
 12  3  1  0
  2 13  1  6
  6 14  1  0
  5 15  1  1
 16  8  1  0
 17 13  1  0
 18 14  1  0
 19 16  1  0
  4  6  1  0
 19 15  1  0
 12 18  1  0
 11  3  1  0
M  CHG  2   3   1   9  -1
M  END
>  <ID>  (2456) 


>  <MOLENAME>  (2456) 
OXYMATRINE

>  <therap>  (2456) 
antifungal, hepatoprotectant

>  <ref>  (2456) 
Forestry Res 17:323 (2006); Brain Res 1268:174 (2009); Basic Clin Pharmacol Toxicol 107:906 (2010)

>  <cas#>  (2456) 
16837-52-8

>  <source>  (2456) 
Sophora flavescens

>  <status>  (2456) 
experimental

>  <tradename>  (2456) 
nan

>  <SMILES>  (2456) 
O=C1CCC[C@H]2[C@@H]3CCC[N+]4([O-])CCC[C@H](CN12)[C@H]34

>  <standardized_failed>  (2456) 
False

$$$$

     RDKit          2D

 24 25  0  0  0  0  0  0  0  0999 V2000
    4.8417   -4.8375    0.0000 N   0  0  0  0  0  0  0  0  0  0  0  0
    5.2917   -4.2167    0.0000 C   0  0  0  0  0  0  0  0  0  0  0  0
    5.2292   -5.4917    0.0000 C   0  0  0  0  0  0  0  0  0  0  0  0
    4.1042   -4.6000    0.0000 C   0  0  0  0  0  0  0  0  0  0  0  0
    4.8417   -3.6000    0.0000 C   0  0  0  0  0  0  0  0  0  0  0  0
    5.9750   -3.9167    0.0000 C   0  0  0  0  0  0  0  0  0  0  0  0
    6.3792   -6.1500    0.0000 N   0  0  0  0  0  0  0  0  0  0  0  0
    4.1042   -3.8375    0.0000 C   0  0  0  0  0  0  0  0  0  0  0  0
    5.9917   -5.4917    0.0000 C   0  0  0  0  0  0  0  0  0  0  0  0
    7.5417   -5.4917    0.0000 C   0  0  0  0  0  0  0  0  0  0  0  0
    7.1542   -6.1500    0.0000 C   0  0  0  0  0  0  0  0  0  0  0  0
    4.8417   -6.1500    0.0000 O   0  0  0  0  0  0  0  0  0  0  0  0
    5.9667   -3.3167    0.0000 O   0  0  0  0  0  0  0  0  0  0  0  0
    7.1542   -4.8292    0.0000 O   0  0  0  0  0  0  0  0  0  0  0  0
    6.6667   -4.2167    0.0000 O   0  0  0  0  0  0  0  0  0  0  0  0
    8.3167   -5.4917    0.0000 O   0  0  0  0  0  0  0  0  0  0  0  0
    3.4292   -4.9792    0.0000 C   0  0  0  0  0  0  0  0  0  0  0  0
    3.4292   -3.4542    0.0000 C   0  0  0  0  0  0  0  0  0  0  0  0
    6.3792   -4.8292    0.0000 C   0  0  0  0  0  0  0  0  0  0  0  0
    7.5417   -6.8042    0.0000 C   0  0  0  0  0  0  0  0  0  0  0  0
    8.3167   -6.8042    0.0000 C   0  0  0  0  0  0  0  0  0  0  0  0
    2.7667   -4.6000    0.0000 C   0  0  0  0  0  0  0  0  0  0  0  0
    2.7667   -3.8375    0.0000 C   0  0  0  0  0  0  0  0  0  0  0  0
    8.7042   -7.4667    0.0000 C   0  0  0  0  0  0  0  0  0  0  0  0
  2  1  1  0
  3  1  1  0
  4  1  1  0
  5  2  1  0
  2  6  1  1
  7  9  1  0
  8  4  1  0
  9  3  1  0
 11 10  1  0
 11  7  1  0
 12  3  2  0
 13  6  2  0
 14 10  2  0
 15  6  1  0
 16 10  1  0
  4 17  1  1
  8 18  1  1
  9 19  1  6
 11 20  1  6
 21 20  1  0
 22 17  1  0
 23 22  1  0
 24 21  1  0
  8  5  1  0
 23 18  1  0
M  END
>  <ID>  (2457) 


>  <MOLENAME>  (2457) 
PERINDOPRILAT

>  <therap>  (2457) 
antihypertensive, antfibrotic

>  <ref>  (2457) 
Br Heart J 69:293 (1993);  Kidney Int. 65:1240 (2004);  J Biol Chem 283:4588 (2008)

>  <cas#>  (2457) 
95153-31-4

>  <source>  (2457) 
synthetic; S-9780

>  <status>  (2457) 
INN, BAN

>  <tradename>  (2457) 
nan

>  <SMILES>  (2457) 
CCC[C@H](N[C@@H](C)C(=O)N1[C@H](C(=O)O)C[C@@H]2CCCC[C@@H]21)C(=O)O

>  <standardized_failed>  (2457) 
False

$$$$

     RDKit          2D

 10 10  0  0  0  0  0  0  0  0999 V2000
    4.3417   -4.3542    0.0000 C   0  0  0  0  0  0  0  0  0  0  0  0
    4.4792   -5.1667    0.0000 C   0  0  0  0  0  0  0  0  0  0  0  0
    5.2542   -5.4500    0.0000 C   0  0  0  0  0  0  0  0  0  0  0  0
    4.9667   -3.8292    0.0000 C   0  0  0  0  0  0  0  0  0  0  0  0
    5.7417   -4.1125    0.0000 O   0  0  0  0  0  0  0  0  0  0  0  0
    5.8875   -4.9167    0.0000 C   0  0  0  0  0  0  0  0  0  0  0  0
    3.8542   -5.7042    0.0000 O   0  0  0  0  0  0  0  0  0  0  0  0
    3.5625   -4.0667    0.0000 O   0  0  0  0  0  0  0  0  0  0  0  0
    6.6667   -5.2042    0.0000 C   0  0  0  0  0  0  0  0  0  0  0  0
    6.8167   -6.0167    0.0000 O   0  0  0  0  0  0  0  0  0  0  0  0
  2  1  1  0
  3  2  1  0
  4  1  2  0
  5  4  1  0
  6  5  1  0
  7  2  2  0
  8  1  1  0
  9  6  1  0
 10  9  1  0
  3  6  2  0
M  END
>  <ID>  (2458) 


>  <MOLENAME>  (2458) 
KOJIC ACID

>  <therap>  (2458) 
chelator, antibacterial, skin whitening agent

>  <ref>  (2458) 
Cent Eur J Publ Health 12 Suppl:S16 (2004); Nat Prod Rep 23:1046 (2006)

>  <cas#>  (2458) 
501-30-4

>  <source>  (2458) 
Aspergillus spp

>  <status>  (2458) 
experimental

>  <tradename>  (2458) 
nan

>  <SMILES>  (2458) 
O=c1cc(CO)occ1O

>  <standardized_failed>  (2458) 
False

$$$$

     RDKit          2D

 13 11  0  0  0  0  0  0  0  0999 V2000
    5.4667   -2.2125    0.0000 N   0  0  0  0  0  0  0  0  0  0  0  0
    4.7542   -1.8000    0.0000 C   0  0  0  0  0  0  0  0  0  0  0  0
    1.4042   -0.2167    0.0000 C   0  0  0  0  0  0  0  0  0  0  0  0
    3.1375    0.1208    0.0000 C   0  0  0  0  0  0  0  0  0  0  0  0
    2.5583   -0.2167    0.0000 C   0  0  0  0  0  0  0  0  0  0  0  0
    1.9833    0.1208    0.0000 C   0  0  0  0  0  0  0  0  0  0  0  0
    1.4042   -0.8875    0.0000 O   0  0  0  0  0  0  0  0  0  0  0  0
    3.1375    0.7833    0.0000 O   0  0  0  0  0  0  0  0  0  0  0  0
    4.0417   -1.3917    0.0000 C   0  0  0  0  0  0  0  0  0  0  0  0
    3.7125   -0.2167    0.0000 O   0  0  0  0  0  0  0  0  0  0  0  0
    0.8292    0.1208    0.0000 O   0  0  0  0  0  0  0  0  0  0  0  0
    2.6167   -1.3917    0.0000 N   0  0  0  0  0  0  0  0  0  0  0  0
    3.3292   -1.8042    0.0000 C   0  0  0  0  0  0  0  0  0  0  0  0
  2  1  3  0
  4  5  1  0
  5  6  2  0
  6  3  1  0
  7  3  2  0
  8  4  2  0
  9  2  1  0
 10  4  1  0
 11  3  1  0
 12 13  1  0
 13  9  1  0
M  END
>  <ID>  (2459) 


>  <MOLENAME>  (2459) 
3-AMINOPROPIONITRILE FUMARATE

>  <therap>  (2459) 
lathyrogen, teratogen

>  <ref>  (2459) 
J Org Chem 50:2011 (1985)

>  <cas#>  (2459) 
2079-89-2

>  <source>  (2459) 
Lathyrus spp

>  <status>  (2459) 
experimental

>  <tradename>  (2459) 
nan

>  <SMILES>  (2459) 
N#CCCN

>  <standardized_failed>  (2459) 
False

$$$$

     RDKit          2D

  6  5  0  0  0  0  0  0  0  0999 V2000
   -0.8833    0.1875    0.0000 C   0  0  0  0  0  0  0  0  0  0  0  0
   -1.5958    0.6000    0.0000 Br  0  0  0  0  0  0  0  0  0  0  0  0
   -0.8833   -0.6375    0.0000 Br  0  0  0  0  0  0  0  0  0  0  0  0
   -1.5958   -0.2167    0.0000 Br  0  0  0  0  0  0  0  0  0  0  0  0
   -0.1667    0.6000    0.0000 C   0  0  0  0  0  0  0  0  0  0  0  0
    0.5458    0.1875    0.0000 O   0  0  0  0  0  0  0  0  0  0  0  0
  2  1  1  0
  3  1  1  0
  4  1  1  0
  5  1  1  0
  6  5  1  0
M  END
>  <ID>  (2460) 


>  <MOLENAME>  (2460) 
TRIBROMOETHANOL

>  <therap>  (2460) 
hypnotic

>  <ref>  (2460) 
J Pharm Exp Therap 49:50 (1933); Ann Surg 103:535 (1936)

>  <cas#>  (2460) 
75-80-9

>  <source>  (2460) 
synthetic

>  <status>  (2460) 
NF-XIII, MI

>  <tradename>  (2460) 
AVERTIN

>  <SMILES>  (2460) 
OCC(Br)(Br)Br

>  <standardized_failed>  (2460) 
False

$$$$

     RDKit          2D

 13 11  0  0  0  0  0  0  0  0999 V2000
    5.4667   -0.4125    0.0000 N   0  0  0  0  0  0  0  0  0  0  0  0
    8.2000   -2.3042    0.0000 Cl  0  0  0  0  0  0  0  0  0  0  0  0
    4.7542   -0.8250    0.0000 C   0  0  0  0  0  0  0  0  0  0  0  0
    6.1792   -0.8167    0.0000 C   0  0  0  0  0  0  0  0  0  0  0  0
    3.3292   -0.8292    0.0000 C   0  0  0  0  0  0  0  0  0  0  0  0
    4.0417   -0.4167    0.0000 C   0  0  0  0  0  0  0  0  0  0  0  0
    2.6167   -0.4167    0.0000 C   0  0  0  0  0  0  0  0  0  0  0  0
    1.9042   -0.8292    0.0000 C   0  0  0  0  0  0  0  0  0  0  0  0
    6.1792   -1.6417    0.0000 C   0  0  0  0  0  0  0  0  0  0  0  0
    6.8917   -0.4042    0.0000 C   0  0  0  0  0  0  0  0  0  0  0  0
    4.7542   -1.6500    0.0000 C   0  0  0  0  0  0  0  0  0  0  0  0
    1.1917   -0.4250    0.0000 C   0  0  0  0  0  0  0  0  0  0  0  0
    1.9042   -1.6542    0.0000 C   0  0  0  0  0  0  0  0  0  0  0  0
  3  1  1  0
  4  1  1  0
  5  6  1  0
  6  3  1  0
  7  5  1  0
  8  7  1  0
  9  4  1  0
 10  4  1  0
 11  3  1  0
 12  8  1  0
 13  8  1  0
M  END
>  <ID>  (2461) 


>  <MOLENAME>  (2461) 
IPROHEPTINE HYDROCHLORIDE

>  <therap>  (2461) 
antihistamine

>  <ref>  (2461) 
nan

>  <cas#>  (2461) 
4013-92-7

>  <source>  (2461) 
nan

>  <status>  (2461) 
JAN

>  <tradename>  (2461) 
METRON

>  <SMILES>  (2461) 
CC(C)CCCC(C)NC(C)C

>  <standardized_failed>  (2461) 
False

$$$$

     RDKit          2D

 15 16  0  0  0  0  0  0  0  0999 V2000
    3.8667    0.5708    0.0000 C   0  0  0  0  0  0  0  0  0  0  0  0
    3.1625   -0.6750    0.0000 C   0  0  0  0  0  0  0  0  0  0  0  0
    3.1542    0.1500    0.0000 O   0  0  0  0  0  0  0  0  0  0  0  0
    2.4542   -1.0917    0.0000 C   0  0  0  0  0  0  0  0  0  0  0  0
    3.8667    1.3958    0.0000 O   0  0  0  0  0  0  0  0  0  0  0  0
    4.5875    0.1583    0.0000 N   0  0  0  0  0  0  0  0  0  0  0  0
    2.4542   -1.9167    0.0000 C   0  0  0  0  0  0  0  0  0  0  0  0
    3.8792   -1.0792    0.0000 C   0  0  0  0  0  0  0  0  0  0  0  0
    3.8792   -1.9125    0.0000 C   0  0  0  0  0  0  0  0  0  0  0  0
    1.7375   -0.6792    0.0000 C   0  0  0  0  0  0  0  0  0  0  0  0
    3.1667   -2.3292    0.0000 C   0  0  0  0  0  0  0  0  0  0  0  0
    5.3000    0.5708    0.0000 C   0  0  0  0  0  0  0  0  0  0  0  0
    1.7375   -2.3292    0.0000 C   0  0  0  0  0  0  0  0  0  0  0  0
    1.0250   -1.0917    0.0000 C   0  0  0  0  0  0  0  0  0  0  0  0
    1.0250   -1.9167    0.0000 C   0  0  0  0  0  0  0  0  0  0  0  0
  2  3  1  0
  3  1  1  0
  4  2  2  0
  5  1  2  0
  6  1  1  0
  7  4  1  0
  8  2  1  0
  9  8  2  0
 10  4  1  0
 11  9  1  0
 12  6  1  0
 13  7  1  0
 14 10  2  0
 15 14  1  0
  7 11  2  0
 13 15  2  0
M  END
>  <ID>  (2462) 


>  <MOLENAME>  (2462) 
CARBARIL

>  <therap>  (2462) 
antiparacitic, insecticide

>  <ref>  (2462) 
nan

>  <cas#>  (2462) 
63-25-2

>  <source>  (2462) 
nan

>  <status>  (2462) 
INN, BAN

>  <tradename>  (2462) 
nan

>  <SMILES>  (2462) 
CNC(=O)Oc1c2ccccc2ccc1

>  <standardized_failed>  (2462) 
False

$$$$

     RDKit          2D

 17 18  0  0  0  0  0  0  0  0999 V2000
    3.9042   -0.9625    0.0000 C   0  0  0  0  0  0  0  0  0  0  0  0
    3.1917   -1.3750    0.0000 N   0  0  0  0  0  0  0  0  0  0  0  0
    4.6167   -1.3792    0.0000 C   0  0  0  0  0  0  0  0  0  0  0  0
    5.3292   -0.9667    0.0000 C   0  0  0  0  0  0  0  0  0  0  0  0
    6.0417   -1.3792    0.0000 C   0  0  0  0  0  0  0  0  0  0  0  0
    3.9125   -0.1375    0.0000 S   0  0  0  0  0  0  0  0  0  0  0  0
    6.0417   -2.2042    0.0000 C   0  0  0  0  0  0  0  0  0  0  0  0
    4.6167   -2.2042    0.0000 C   0  0  0  0  0  0  0  0  0  0  0  0
    5.3292   -2.6167    0.0000 C   0  0  0  0  0  0  0  0  0  0  0  0
    1.7667   -2.2000    0.0000 O   0  0  0  0  0  0  0  0  0  0  0  0
    6.7625   -0.9667    0.0000 O   0  0  0  0  0  0  0  0  0  0  0  0
    6.7625   -2.6167    0.0000 O   0  0  0  0  0  0  0  0  0  0  0  0
    3.1917   -2.2000    0.0000 C   0  0  0  0  0  0  0  0  0  0  0  0
    2.4792   -0.9542    0.0000 C   0  0  0  0  0  0  0  0  0  0  0  0
    2.4792   -2.6042    0.0000 C   0  0  0  0  0  0  0  0  0  0  0  0
    1.7667   -1.3750    0.0000 C   0  0  0  0  0  0  0  0  0  0  0  0
    7.4750   -1.3792    0.0000 C   0  0  0  0  0  0  0  0  0  0  0  0
  2  1  1  0
  3  1  1  0
  4  3  2  0
  5  4  1  0
  6  1  2  0
  7  9  1  0
  8  3  1  0
  9  8  2  0
 10 16  1  0
 11  5  1  0
 12  7  1  0
 13  2  1  0
 14  2  1  0
 15 13  1  0
 16 14  1  0
 17 11  1  0
 10 15  1  0
  5  7  2  0
M  END
>  <ID>  (2463) 


>  <MOLENAME>  (2463) 
VANITIOLIDE

>  <therap>  (2463) 
choleretic

>  <ref>  (2463) 
nan

>  <cas#>  (2463) 
17692-71-6

>  <source>  (2463) 
nan

>  <status>  (2463) 
INN

>  <tradename>  (2463) 
nan

>  <SMILES>  (2463) 
COc1c(O)ccc(C(=S)N2CCOCC2)c1

>  <standardized_failed>  (2463) 
False

$$$$

     RDKit          2D

 17 17  0  0  0  0  0  0  0  0999 V2000
    1.7667   -1.5042    0.0000 S   0  0  0  0  0  0  0  0  0  0  0  0
    1.7667   -0.6792    0.0000 C   0  0  0  0  0  0  0  0  0  0  0  0
    2.4792   -1.9167    0.0000 N   0  0  0  0  0  0  0  0  0  0  0  0
    1.7625    1.8000    0.0000 C   0  0  0  0  0  0  0  0  0  0  0  0
    1.0542   -1.9167    0.0000 O   0  0  0  0  0  0  0  0  0  0  0  0
    1.7625   -2.3292    0.0000 O   0  0  0  0  0  0  0  0  0  0  0  0
    1.7667    0.9750    0.0000 C   0  0  0  0  0  0  0  0  0  0  0  0
    1.0500    2.2083    0.0000 O   0  0  0  0  0  0  0  0  0  0  0  0
    2.4792   -0.2667    0.0000 C   0  0  0  0  0  0  0  0  0  0  0  0
    1.0542   -0.2667    0.0000 C   0  0  0  0  0  0  0  0  0  0  0  0
    2.4792    0.5625    0.0000 C   0  0  0  0  0  0  0  0  0  0  0  0
    1.0542    0.5625    0.0000 C   0  0  0  0  0  0  0  0  0  0  0  0
    2.4792    2.2125    0.0000 O   0  0  0  0  0  0  0  0  0  0  0  0
    3.1917   -1.5042    0.0000 C   0  0  0  0  0  0  0  0  0  0  0  0
    2.4792   -2.7417    0.0000 C   0  0  0  0  0  0  0  0  0  0  0  0
    3.1917   -3.1542    0.0000 C   0  0  0  0  0  0  0  0  0  0  0  0
    3.9125   -1.9167    0.0000 C   0  0  0  0  0  0  0  0  0  0  0  0
  2  1  1  0
  3  1  1  0
  4  7  1  0
  5  1  2  0
  6  1  2  0
  7 12  1  0
  8  4  2  0
  9  2  2  0
 10  2  1  0
 11  9  1  0
 12 10  2  0
 13  4  1  0
 14  3  1  0
 15  3  1  0
 16 15  1  0
 17 14  1  0
 11  7  2  0
M  END
>  <ID>  (2464) 


>  <MOLENAME>  (2464) 
ETEBENECID

>  <therap>  (2464) 
antiinflammatory, antiarthritic

>  <ref>  (2464) 
nan

>  <cas#>  (2464) 
1213-06-5

>  <source>  (2464) 
nan

>  <status>  (2464) 
INN, BAN

>  <tradename>  (2464) 
URELIM

>  <SMILES>  (2464) 
CCN(CC)S(=O)(=O)c1ccc(C(=O)O)cc1

>  <standardized_failed>  (2464) 
False

$$$$

     RDKit          2D

 11 10  0  0  0  0  0  0  0  0999 V2000
    1.3792   -0.3042    0.0000 C   0  0  0  0  0  0  0  0  0  0  0  0
    2.0917   -0.7167    0.0000 C   0  0  0  0  0  0  0  0  0  0  0  0
    6.3708   -0.7208    0.0000 O   0  0  0  0  0  0  0  0  0  0  0  0
    5.6583   -0.3083    0.0000 C   0  0  0  0  0  0  0  0  0  0  0  0
    2.8042   -0.3042    0.0000 C   0  0  0  0  0  0  0  0  0  0  0  0
    0.6667   -0.7167    0.0000 C   0  0  0  0  0  0  0  0  0  0  0  0
    1.3792    0.5208    0.0000 C   0  0  0  0  0  0  0  0  0  0  0  0
    4.9417   -0.7167    0.0000 C   0  0  0  0  0  0  0  0  0  0  0  0
    3.5167   -0.7167    0.0000 C   0  0  0  0  0  0  0  0  0  0  0  0
    4.2292   -0.3042    0.0000 C   0  0  0  0  0  0  0  0  0  0  0  0
    4.2292    0.5208    0.0000 C   0  0  0  0  0  0  0  0  0  0  0  0
  2  1  2  0
  3  4  2  0
  4  8  1  0
  5  2  1  0
  6  1  1  0
  7  1  1  0
  8 10  1  0
  9  5  1  0
 10  9  1  0
 10 11  1  1
M  END
>  <ID>  (2465) 


>  <MOLENAME>  (2465) 
CITRONELLAL (R+)

>  <therap>  (2465) 
insect repellent

>  <ref>  (2465) 
Aust J Chem 19:525 (1966)

>  <cas#>  (2465) 
2385-77-5

>  <source>  (2465) 
Citrus & Ocimum spp, and many plant oils

>  <status>  (2465) 
undetermined activity

>  <tradename>  (2465) 
nan

>  <SMILES>  (2465) 
CC(C)=CCC[C@@H](C)CC=O

>  <standardized_failed>  (2465) 
False

$$$$

     RDKit          2D

 21 22  0  0  0  0  0  0  0  0999 V2000
    3.8292   -4.8250    0.0000 C   0  0  0  0  0  0  0  0  0  0  0  0
    5.2542   -4.8292    0.0000 C   0  0  0  0  0  0  0  0  0  0  0  0
    5.9667   -4.4167    0.0000 C   0  0  0  0  0  0  0  0  0  0  0  0
    4.5417   -4.4167    0.0000 C   0  0  0  0  0  0  0  0  0  0  0  0
    7.3958   -4.4208    0.0000 C   0  0  0  0  0  0  0  0  0  0  0  0
    8.1083   -4.8375    0.0000 C   0  0  0  0  0  0  0  0  0  0  0  0
    6.6792   -4.8333    0.0000 C   0  0  0  0  0  0  0  0  0  0  0  0
    3.1250   -4.4125    0.0000 C   0  0  0  0  0  0  0  0  0  0  0  0
    4.5458   -3.5917    0.0000 O   0  0  0  0  0  0  0  0  0  0  0  0
    6.6792   -5.6625    0.0000 C   0  0  0  0  0  0  0  0  0  0  0  0
    8.1083   -5.6625    0.0000 C   0  0  0  0  0  0  0  0  0  0  0  0
    7.3958   -6.0750    0.0000 C   0  0  0  0  0  0  0  0  0  0  0  0
    7.4042   -3.5917    0.0000 O   0  0  0  0  0  0  0  0  0  0  0  0
    3.1292   -3.5875    0.0000 O   0  0  0  0  0  0  0  0  0  0  0  0
    8.8292   -6.0667    0.0000 O   0  0  0  0  0  0  0  0  0  0  0  0
    3.8333   -5.6458    0.0000 C   0  0  0  0  0  0  0  0  0  0  0  0
    2.4125   -4.8167    0.0000 C   0  0  0  0  0  0  0  0  0  0  0  0
    8.1208   -3.1875    0.0000 C   0  0  0  0  0  0  0  0  0  0  0  0
    9.5375   -5.6500    0.0000 C   0  0  0  0  0  0  0  0  0  0  0  0
    3.1208   -6.0542    0.0000 C   0  0  0  0  0  0  0  0  0  0  0  0
    2.4083   -5.6417    0.0000 C   0  0  0  0  0  0  0  0  0  0  0  0
  2  4  1  0
  3  2  2  0
  4  1  1  0
  5  7  2  0
  6  5  1  0
  7  3  1  0
  8  1  2  0
  9  4  2  0
 10  7  1  0
 11 12  1  0
 12 10  2  0
 13  5  1  0
 14  8  1  0
 15 11  1  0
 16  1  1  0
 17  8  1  0
 18 13  1  0
 19 15  1  0
 20 16  2  0
 21 17  2  0
 21 20  1  0
 11  6  2  0
M  END
>  <ID>  (2466) 


>  <MOLENAME>  (2466) 
2.4-DIMETHOXY-2'-HYDROXYCHALCONE

>  <therap>  (2466) 
PGE2 inhibitor

>  <ref>  (2466) 
http://www.usc.es/congresos/ecsoc/12/hall_c_BMNPC/c0011/c0011.pdf

>  <cas#>  (2466) 
32272-18-7

>  <source>  (2466) 
synthetic

>  <status>  (2466) 
experimental

>  <tradename>  (2466) 
nan

>  <SMILES>  (2466) 
COc1cc(OC)c(/C=C/C(=O)c2c(O)cccc2)cc1

>  <standardized_failed>  (2466) 
False

$$$$

     RDKit          2D

 28 25  0  0  0  0  0  0  0  0999 V2000
    5.2042   -0.9167    0.0000 C   0  0  0  0  0  0  0  0  0  0  0  0
    0.8375   -2.7792    0.0000 C   0  0  0  0  0  0  0  0  0  0  0  0
   10.9542   -2.9750    0.0000 C   0  0  0  0  0  0  0  0  0  0  0  0
    5.7667   -0.5917    0.0000 C   0  0  0  0  0  0  0  0  0  0  0  0
    7.4542   -0.9167    0.0000 C   0  0  0  0  0  0  0  0  0  0  0  0
    4.6292   -0.5917    0.0000 O   0  0  0  0  0  0  0  0  0  0  0  0
    0.8375   -3.6042    0.0000 O   0  0  0  0  0  0  0  0  0  0  0  0
   10.9542   -3.8000    0.0000 O   0  0  0  0  0  0  0  0  0  0  0  0
    8.0292   -0.5792    0.0000 O   0  0  0  0  0  0  0  0  0  0  0  0
    5.7542    0.0583    0.0000 O   0  0  0  0  0  0  0  0  0  0  0  0
    6.3292   -0.9167    0.0000 C   0  0  0  0  0  0  0  0  0  0  0  0
    1.5625   -2.3667    0.0000 C   0  0  0  0  0  0  0  0  0  0  0  0
   10.2292   -2.5625    0.0000 C   0  0  0  0  0  0  0  0  0  0  0  0
    6.8917   -0.5917    0.0000 C   0  0  0  0  0  0  0  0  0  0  0  0
    5.2042   -1.5792    0.0000 O   0  0  0  0  0  0  0  0  0  0  0  0
    0.1250   -2.3667    0.0000 O   0  0  0  0  0  0  0  0  0  0  0  0
   11.6667   -2.5625    0.0000 O   0  0  0  0  0  0  0  0  0  0  0  0
    1.5625   -1.5375    0.0000 N   0  0  0  0  0  0  0  0  0  0  0  0
   10.2292   -1.7292    0.0000 N   0  0  0  0  0  0  0  0  0  0  0  0
    7.4542   -1.5667    0.0000 O   0  0  0  0  0  0  0  0  0  0  0  0
    4.4250   -2.3792    0.0000 N   0  0  0  0  0  0  0  0  0  0  0  0
    7.3667   -2.5750    0.0000 N   0  0  0  0  0  0  0  0  0  0  0  0
    3.7125   -2.7875    0.0000 C   0  0  0  0  0  0  0  0  0  0  0  0
    8.0792   -2.9792    0.0000 C   0  0  0  0  0  0  0  0  0  0  0  0
    2.2750   -2.7792    0.0000 C   0  0  0  0  0  0  0  0  0  0  0  0
    9.5167   -2.9750    0.0000 C   0  0  0  0  0  0  0  0  0  0  0  0
    2.9875   -2.3750    0.0000 C   0  0  0  0  0  0  0  0  0  0  0  0
    8.8042   -2.5667    0.0000 C   0  0  0  0  0  0  0  0  0  0  0  0
  4  1  1  0
  5 14  1  0
  6  1  2  0
  7  2  2  0
  8  3  2  0
  9  5  2  0
 10  4  2  0
 11  4  1  0
 12  2  1  0
 13  3  1  0
 14 11  1  0
 15  1  1  0
 16  2  1  0
 17  3  1  0
 18 12  1  0
 19 13  1  0
 20  5  1  0
 21 23  1  0
 22 24  1  0
 23 27  1  0
 24 28  1  0
 25 12  1  0
 26 13  1  0
 27 25  1  0
 28 26  1  0
M  END
>  <ID>  (2467) 


>  <MOLENAME>  (2467) 
ORNITHINE aKETOGLUTARATE

>  <therap>  (2467) 
hepatotonic, immune stimulant

>  <ref>  (2467) 
Nutr Res 20:1807 (2000); Ann Nutr Metab 46:93 (2002)

>  <cas#>  (2467) 
5191-97-9, 70-26-8 (base)

>  <source>  (2467) 
synthetic

>  <status>  (2467) 
experimental

>  <tradename>  (2467) 
nan

>  <SMILES>  (2467) 
NCCCC(N)C(=O)O

>  <standardized_failed>  (2467) 
False

$$$$

     RDKit          2D

 11 12  0  0  0  0  0  0  0  0999 V2000
   -0.5125   -0.9542    0.0000 N   0  0  0  0  0  0  0  0  0  0  0  0
   -1.2250    0.2833    0.0000 N   0  0  0  0  0  0  0  0  0  0  0  0
    0.2042   -0.5417    0.0000 C   0  0  0  0  0  0  0  0  0  0  0  0
    0.2042    0.2833    0.0000 C   0  0  0  0  0  0  0  0  0  0  0  0
   -0.5125    0.6958    0.0000 C   0  0  0  0  0  0  0  0  0  0  0  0
   -1.2250   -0.5417    0.0000 C   0  0  0  0  0  0  0  0  0  0  0  0
    0.9917    0.5458    0.0000 N   0  0  0  0  0  0  0  0  0  0  0  0
    0.9917   -0.8042    0.0000 N   0  0  0  0  0  0  0  0  0  0  0  0
    1.4792   -0.1292    0.0000 C   0  0  0  0  0  0  0  0  0  0  0  0
   -0.5208    1.5208    0.0000 S   0  0  0  0  0  0  0  0  0  0  0  0
   -1.9458   -0.9542    0.0000 N   0  0  0  0  0  0  0  0  0  0  0  0
  2  6  2  0
  3  1  2  0
  4  3  1  0
  5  2  1  0
  6  1  1  0
  7  4  1  0
  8  3  1  0
  9  8  1  0
 10  5  1  0
 11  6  1  0
  4  5  2  0
  9  7  2  0
M  END
>  <ID>  (2468) 


>  <MOLENAME>  (2468) 
TIOGUANINE

>  <therap>  (2468) 
antineoplastic, anti-ulcerative colitis

>  <ref>  (2468) 
J Am Acad Dermatol 44: 67 (2001); Lancet 368: 1339 (2006)

>  <cas#>  (2468) 
154-42-7

>  <source>  (2468) 
synthetic

>  <status>  (2468) 
INN, BAN

>  <tradename>  (2468) 
LANVIS

>  <SMILES>  (2468) 
Nc1nc(S)c2nc[nH]c2n1

>  <standardized_failed>  (2468) 
False

$$$$

     RDKit          2D

  9  9  0  0  0  0  0  0  0  0999 V2000
    2.2292   -1.4167    0.0000 N   0  0  0  0  0  0  0  0  0  0  0  0
    2.2292   -0.5917    0.0000 C   0  0  0  0  0  0  0  0  0  0  0  0
    1.5167   -1.8292    0.0000 C   0  0  0  0  0  0  0  0  0  0  0  0
    1.5167   -0.1792    0.0000 N   0  0  0  0  0  0  0  0  0  0  0  0
    0.8042   -1.4167    0.0000 C   0  0  0  0  0  0  0  0  0  0  0  0
    0.8042   -0.5917    0.0000 C   0  0  0  0  0  0  0  0  0  0  0  0
    2.9417   -0.1750    0.0000 S   0  0  0  0  0  0  0  0  0  0  0  0
    1.5167   -2.6542    0.0000 O   0  0  0  0  0  0  0  0  0  0  0  0
    0.0917   -0.1792    0.0000 C   0  0  0  0  0  0  0  0  0  0  0  0
  2  1  2  0
  3  1  1  0
  4  2  1  0
  5  3  2  0
  6  5  1  0
  7  2  1  0
  8  3  1  0
  9  6  1  0
  4  6  2  0
M  END
>  <ID>  (2469) 


>  <MOLENAME>  (2469) 
METHYLTHIOURACIL

>  <therap>  (2469) 
anticonvulsant, antihyperthiroidism

>  <ref>  (2469) 
Z. Krebsforsch. 77:171 (1972); Clin. exp. Dermatol., 10, 292 (1985)

>  <cas#>  (2469) 
56-04-2

>  <source>  (2469) 
synthetic

>  <status>  (2469) 
experimental

>  <tradename>  (2469) 
METHICIL

>  <SMILES>  (2469) 
Cc1nc(S)nc(O)c1

>  <standardized_failed>  (2469) 
False

$$$$

     RDKit          2D

  7  6  0  0  0  0  0  0  0  0999 V2000
    2.6750   -1.0792    0.0000 C   0  0  0  0  0  0  0  0  0  0  0  0
    1.9667   -2.3167    0.0000 N   0  0  0  0  0  0  0  0  0  0  0  0
    1.9667   -1.4917    0.0000 N   0  0  0  0  0  0  0  0  0  0  0  0
    2.6750   -0.2542    0.0000 O   0  0  0  0  0  0  0  0  0  0  0  0
    2.6750   -2.7292    0.0000 C   0  0  0  0  0  0  0  0  0  0  0  0
    1.2500   -1.0792    0.0000 C   0  0  0  0  0  0  0  0  0  0  0  0
    2.6750   -3.5542    0.0000 C   0  0  0  0  0  0  0  0  0  0  0  0
  2  3  1  0
  3  1  1  0
  4  1  2  0
  5  2  2  0
  6  3  1  0
  7  5  1  0
M  END
>  <ID>  (2470) 


>  <MOLENAME>  (2470) 
GYROMITRIN

>  <therap>  (2470) 
hepatotoxin, carcinogen

>  <ref>  (2470) 
Arch Pharmazie 302:294 (1968); Z Lebensm Unters Forsch 160:325 (1976);  Cancer Res 37:3458 (1977); J Appl Toxicol 11:235 (1991)

>  <cas#>  (2470) 
16568-02-8

>  <source>  (2470) 
Gyromitra species; metabolized to  formylmethylhydrazine

>  <status>  (2470) 
experimental

>  <tradename>  (2470) 
nan

>  <SMILES>  (2470) 
C/C=N/N(C)C=O

>  <standardized_failed>  (2470) 
False

$$$$

     RDKit          2D

  5  4  0  0  0  0  0  0  0  0999 V2000
    2.6750   -1.0792    0.0000 C   0  0  0  0  0  0  0  0  0  0  0  0
    2.6750   -0.2542    0.0000 O   0  0  0  0  0  0  0  0  0  0  0  0
    1.9667   -1.4917    0.0000 N   0  0  0  0  0  0  0  0  0  0  0  0
    1.9667   -2.3167    0.0000 N   0  0  0  0  0  0  0  0  0  0  0  0
    1.2500   -1.0792    0.0000 C   0  0  0  0  0  0  0  0  0  0  0  0
  2  1  2  0
  3  1  1  0
  4  3  1  0
  5  3  1  0
M  END
>  <ID>  (2471) 


>  <MOLENAME>  (2471) 
FORMYLMETHYLHYDRAZINE

>  <therap>  (2471) 
hepatotoxin, carcinogen

>  <ref>  (2471) 
J Food Safety 1:295 (2007); 

>  <cas#>  (2471) 
758-17-8

>  <source>  (2471) 
primary metabolite of gyromitrin (01504614),synthetic; BRN 2036827, CCRIS 1182,

>  <status>  (2471) 
experimental

>  <tradename>  (2471) 
nan

>  <SMILES>  (2471) 
CN(N)C=O

>  <standardized_failed>  (2471) 
False

$$$$

     RDKit          2D

 54 56  0  0  0  0  0  0  0  0999 V2000
    1.7917   -2.7625    0.0000 S   0  0  0  0  0  0  0  0  0  0  0  0
    9.6167   -3.9792    0.0000 S   0  0  0  0  0  0  0  0  0  0  0  0
    6.7750    0.1458    0.0000 S   0  0  0  0  0  0  0  0  0  0  0  0
    2.5000   -4.0042    0.0000 C   0  0  0  0  0  0  0  0  0  0  0  0
    1.7875   -3.5875    0.0000 C   0  0  0  0  0  0  0  0  0  0  0  0
    3.2125   -3.5917    0.0000 C   0  0  0  0  0  0  0  0  0  0  0  0
    3.2042   -0.2875    0.0000 N   0  0  0  0  0  0  0  0  0  0  0  0
    3.9292   -4.0042    0.0000 C   0  0  0  0  0  0  0  0  0  0  0  0
    3.2125   -2.7667    0.0000 C   0  0  0  0  0  0  0  0  0  0  0  0
    3.2125   -1.1125    0.0000 C   0  0  0  0  0  0  0  0  0  0  0  0
    6.0625   -0.2750    0.0000 C   0  0  0  0  0  0  0  0  0  0  0  0
    8.9042   -3.5750    0.0000 C   0  0  0  0  0  0  0  0  0  0  0  0
    2.5042   -2.3542    0.0000 C   0  0  0  0  0  0  0  0  0  0  0  0
    3.9292   -2.3542    0.0000 C   0  0  0  0  0  0  0  0  0  0  0  0
    2.5000   -1.5250    0.0000 C   0  0  0  0  0  0  0  0  0  0  0  0
    3.9292   -1.5250    0.0000 C   0  0  0  0  0  0  0  0  0  0  0  0
    4.6375   -3.5917    0.0000 C   0  0  0  0  0  0  0  0  0  0  0  0
    6.0625   -3.5875    0.0000 N   0  0  0  0  0  0  0  0  0  0  0  0
    1.0750   -4.0000    0.0000 C   0  0  0  0  0  0  0  0  0  0  0  0
    2.5042   -4.8250    0.0000 C   0  0  0  0  0  0  0  0  0  0  0  0
    1.7875   -1.9375    0.0000 O   0  0  0  0  0  0  0  0  0  0  0  0
   10.3292   -4.3917    0.0000 O   0  0  0  0  0  0  0  0  0  0  0  0
    7.4875    0.5583    0.0000 O   0  0  0  0  0  0  0  0  0  0  0  0
    5.3500   -4.0000    0.0000 C   0  0  0  0  0  0  0  0  0  0  0  0
    1.0750   -3.1667    0.0000 O   0  0  0  0  0  0  0  0  0  0  0  0
    1.0792   -2.3500    0.0000 O   0  0  0  0  0  0  0  0  0  0  0  0
    9.6250   -4.8042    0.0000 O   0  0  0  0  0  0  0  0  0  0  0  0
    7.4917   -0.2625    0.0000 O   0  0  0  0  0  0  0  0  0  0  0  0
    6.7667    0.9708    0.0000 O   0  0  0  0  0  0  0  0  0  0  0  0
   10.3292   -3.5667    0.0000 O   0  0  0  0  0  0  0  0  0  0  0  0
    3.9250    0.1250    0.0000 C   0  0  0  0  0  0  0  0  0  0  0  0
    6.7750   -3.9917    0.0000 C   0  0  0  0  0  0  0  0  0  0  0  0
    8.2000   -3.9917    0.0000 C   0  0  0  0  0  0  0  0  0  0  0  0
    5.3417    0.1333    0.0000 C   0  0  0  0  0  0  0  0  0  0  0  0
    4.6375   -0.2792    0.0000 C   0  0  0  0  0  0  0  0  0  0  0  0
    7.4792   -3.5792    0.0000 C   0  0  0  0  0  0  0  0  0  0  0  0
    1.0750   -4.8250    0.0000 C   0  0  0  0  0  0  0  0  0  0  0  0
    1.7917   -5.2375    0.0000 C   0  0  0  0  0  0  0  0  0  0  0  0
    2.4917    0.1208    0.0000 C   0  0  0  0  0  0  0  0  0  0  0  0
    3.9250   -4.8292    0.0000 C   0  0  0  0  0  0  0  0  0  0  0  0
    0.4042   -1.3167    0.0000 Na  0  0  0  0  0 15  0  0  0  0  0  0
   11.4000   -4.3500    0.0000 Na  0  0  0  0  0 15  0  0  0  0  0  0
    0.3542   -5.2417    0.0000 O   0  0  0  0  0  0  0  0  0  0  0  0
    8.9000   -2.7542    0.0000 C   0  0  0  0  0  0  0  0  0  0  0  0
    6.0667   -1.1042    0.0000 C   0  0  0  0  0  0  0  0  0  0  0  0
    6.0542   -2.7625    0.0000 C   0  0  0  0  0  0  0  0  0  0  0  0
    5.3542   -4.8292    0.0000 C   0  0  0  0  0  0  0  0  0  0  0  0
    4.6375   -5.2417    0.0000 C   0  0  0  0  0  0  0  0  0  0  0  0
    5.3542   -1.5167    0.0000 C   0  0  0  0  0  0  0  0  0  0  0  0
    8.1792   -2.3500    0.0000 C   0  0  0  0  0  0  0  0  0  0  0  0
    7.4792   -2.7667    0.0000 C   0  0  0  0  0  0  0  0  0  0  0  0
    4.6375   -1.1042    0.0000 C   0  0  0  0  0  0  0  0  0  0  0  0
    2.4917    0.9458    0.0000 C   0  0  0  0  0  0  0  0  0  0  0  0
    6.7667   -2.3417    0.0000 C   0  0  0  0  0  0  0  0  0  0  0  0
  2 12  1  0
  3 11  1  0
  4  5  2  0
  5  1  1  0
  6  4  1  0
  7 10  2  0
  8  6  1  0
  9  6  2  0
 10 16  1  0
 11 34  2  0
 12 33  2  0
 13  9  1  0
 14  9  1  0
 15 13  2  0
 16 14  2  0
 17  8  2  0
 18 24  1  0
 19  5  1  0
 20  4  1  0
 21  1  1  0
 22  2  1  0
 23  3  1  0
 24 17  1  0
 25  1  2  0
 26  1  2  0
 27  2  2  0
 28  3  2  0
 29  3  2  0
 30  2  2  0
 31  7  1  0
 32 18  1  0
 33 36  1  0
 34 35  1  0
 35 31  1  0
 36 32  1  0
 37 19  2  0
 38 37  1  0
 39  7  1  0
 40  8  1  0
 43 37  1  0
 44 50  2  0
 45 49  2  0
 46 18  1  0
 47 48  1  0
 48 40  2  0
 49 52  1  0
 50 51  1  0
 51 36  2  0
 52 35  2  0
 53 39  1  0
 54 46  1  0
 38 20  2  0
 10 15  1  0
 24 47  2  0
 12 44  1  0
 11 45  1  0
M  CHG  6   7   1  21  -1  22  -1  23  -1  41   1  42   1
M  END
>  <ID>  (2472) 


>  <MOLENAME>  (2472) 
FAST GREEN FCF

>  <therap>  (2472) 
carcinogen, mutagen, inhibitor of synaptic activity, immune suppressant

>  <ref>  (2472) 
Can Pharm J 97:30 (1964); Food Cosmet Toxicol 4:389 (1966); Neurosci Letts 318:163 (2002); IARC Monographs 16:187 (1978); Int J Integrated Biol 6:6 (2009)

>  <cas#>  (2472) 
2353-45-9

>  <source>  (2472) 
synthetic

>  <status>  (2472) 
experimental

>  <tradename>  (2472) 
nan

>  <SMILES>  (2472) 
CCN(Cc1cccc(S(=O)(=O)O)c1)c1cccc(C(=C2C=CC(=[N+](CC)Cc3cccc(S(=O)(=O)O)c3)C=C2)c2c(S(=O)(=O)[O-])cc(O)cc2)c1

>  <standardized_failed>  (2472) 
False

$$$$

     RDKit          2D

 27 30  0  0  0  0  0  0  0  0999 V2000
    6.6625   -1.7667    0.0000 C   0  0  0  0  0  0  0  0  0  0  0  0
    6.2250   -2.2167    0.0000 C   0  0  0  0  0  0  0  0  0  0  0  0
    7.3500   -2.0292    0.0000 C   0  0  0  0  0  0  0  0  0  0  0  0
    6.2125   -2.9417    0.0000 O   0  0  0  0  0  0  0  0  0  0  0  0
    6.8875   -3.2042    0.0000 C   0  0  0  0  0  0  0  0  0  0  0  0
    6.0625   -1.3042    0.0000 O   0  0  0  0  0  0  0  0  0  0  0  0
    5.4750   -2.2167    0.0000 O   0  0  0  0  0  0  0  0  0  0  0  0
    6.5500   -1.0542    0.0000 C   0  0  0  0  0  0  0  0  0  0  0  0
    4.8375   -1.7792    0.0000 C   0  0  0  0  0  0  0  0  0  0  0  0
    7.4625   -2.7542    0.0000 C   0  0  0  0  0  0  0  0  0  0  0  0
    7.0000   -3.9292    0.0000 O   0  0  0  0  0  0  0  0  0  0  0  0
    5.5625   -1.6792    0.0000 O   0  0  0  0  0  0  0  0  0  0  0  0
    7.9125   -1.5667    0.0000 C   0  0  0  0  0  0  0  0  0  0  0  0
    6.4250   -4.3917    0.0000 C   0  0  0  0  0  0  0  0  0  0  0  0
    5.7500   -0.7042    0.0000 C   0  0  0  0  0  0  0  0  0  0  0  0
    4.4917   -4.3167    0.0000 C   0  0  0  0  0  0  0  0  0  0  0  0
    7.1125   -0.5792    0.0000 C   0  0  0  0  0  0  0  0  0  0  0  0
    7.8000   -0.8417    0.0000 C   0  0  0  0  0  0  0  0  0  0  0  0
    5.0375   -1.0292    0.0000 C   0  0  0  0  0  0  0  0  0  0  0  0
    6.5417   -5.1167    0.0000 O   0  0  0  0  0  0  0  0  0  0  0  0
    4.3750   -3.6042    0.0000 O   0  0  0  0  0  0  0  0  0  0  0  0
    5.7417   -4.1292    0.0000 C   0  0  0  0  0  0  0  0  0  0  0  0
    5.1750   -4.5875    0.0000 C   0  0  0  0  0  0  0  0  0  0  0  0
    3.9250   -4.7792    0.0000 O   0  0  0  0  0  0  0  0  0  0  0  0
    4.0875   -2.1167    0.0000 C   0  0  0  0  0  0  0  0  0  0  0  0
    8.1625   -2.9417    0.0000 C   0  0  0  0  0  0  0  0  0  0  0  0
    7.1125    0.1458    0.0000 C   0  0  0  0  0  0  0  0  0  0  0  0
  2  1  1  0
  3  1  1  0
  2  4  1  6
  5 10  1  0
  1  6  1  6
  7  2  1  0
  8  1  1  0
  9 12  1  0
 10  3  1  0
  5 11  1  6
 12  6  1  0
  3 13  1  1
 14 11  1  0
  8 15  1  1
 16 23  1  0
 17  8  1  0
 18 17  1  0
 19 15  1  0
 20 14  2  0
 21 16  2  0
 22 14  1  0
 23 22  1  0
 24 16  1  0
  9 25  1  6
 10 26  1  1
 17 27  1  6
 13 18  1  0
 19  9  1  0
  7  9  1  0
  4  5  1  0
M  END
>  <ID>  (2473) 


>  <MOLENAME>  (2473) 
ARTESUNATE

>  <therap>  (2473) 
antimalarial

>  <ref>  (2473) 
J Med Chem 30:2147 (1987); Lancet 355:352 (2000)

>  <cas#>  (2473) 
182824-33-5

>  <source>  (2473) 
semisynthetic

>  <status>  (2473) 
USAN, INN, BAN

>  <tradename>  (2473) 
ARSUMAX

>  <SMILES>  (2473) 
C[C@@H]1CC[C@H]2[C@@H](C)[C@H](OC(=O)CCC(=O)O)O[C@@H]3O[C@@]4(C)CC[C@@H]1[C@@]23OO4

>  <standardized_failed>  (2473) 
False

$$$$

     RDKit          2D

 10  9  0  0  0  0  0  0  0  0999 V2000
    4.8667   -3.5792    0.0000 C   0  0  0  0  0  0  0  0  0  0  0  0
    4.8667   -4.4042    0.0000 C   0  0  0  0  0  0  0  0  0  0  0  0
    5.5750   -4.8125    0.0000 C   0  0  0  0  0  0  0  0  0  0  0  0
    5.5750   -3.1625    0.0000 C   0  0  0  0  0  0  0  0  0  0  0  0
    6.2875   -4.4042    0.0000 O   0  0  0  0  0  0  0  0  0  0  0  0
    5.5750   -2.3375    0.0000 O   0  0  0  0  0  0  0  0  0  0  0  0
    4.1500   -3.1667    0.0000 S   0  0  0  0  0  0  0  0  0  0  0  0
    4.1500   -4.8167    0.0000 S   0  0  0  0  0  0  0  0  0  0  0  0
    6.2875   -3.5792    0.0000 O   0  0  0  0  0  0  0  0  0  0  0  0
    5.5750   -5.6375    0.0000 O   0  0  0  0  0  0  0  0  0  0  0  0
  2  1  1  0
  3  2  1  0
  4  1  1  0
  5  3  2  0
  6  4  2  0
  1  7  1  1
  2  8  1  1
  9  4  1  0
 10  3  1  0
M  END
>  <ID>  (2474) 


>  <MOLENAME>  (2474) 
2.3-DIMERCAPTOSUCCINIC ACID

>  <therap>  (2474) 
chelating agent, antihypertensive

>  <ref>  (2474) 
Biochem Pharmacol 65:1741 (2003)

>  <cas#>  (2474) 
304-55-2

>  <source>  (2474) 
synthetic; DMSA

>  <status>  (2474) 
experimental

>  <tradename>  (2474) 
nan

>  <SMILES>  (2474) 
O=C(O)[C@H](S)[C@H](S)C(=O)O

>  <standardized_failed>  (2474) 
False

$$$$

     RDKit          2D

  9  8  0  0  0  0  0  0  0  0999 V2000
    2.7250   -2.2167    0.0000 S   0  0  0  0  0  0  0  0  0  0  0  0
    0.5875   -1.8042    0.0000 C   0  0  0  0  0  0  0  0  0  0  0  0
    4.8625   -1.8042    0.0000 C   0  0  0  0  0  0  0  0  0  0  0  0
   -0.1250   -2.2167    0.0000 C   0  0  0  0  0  0  0  0  0  0  0  0
    5.5750   -2.2167    0.0000 C   0  0  0  0  0  0  0  0  0  0  0  0
    2.0042   -1.8042    0.0000 S   0  0  0  0  0  0  0  0  0  0  0  0
    3.4375   -1.8042    0.0000 S   0  0  0  0  0  0  0  0  0  0  0  0
    1.3000   -2.2167    0.0000 C   0  0  0  0  0  0  0  0  0  0  0  0
    4.1500   -2.2167    0.0000 C   0  0  0  0  0  0  0  0  0  0  0  0
  2  8  1  0
  3  9  1  0
  4  2  2  0
  5  3  2  0
  6  1  1  0
  7  1  1  0
  8  6  1  0
  9  7  1  0
M  END
>  <ID>  (2475) 


>  <MOLENAME>  (2475) 
DIALLYL TRISULFIDE

>  <therap>  (2475) 
antineoplastic

>  <ref>  (2475) 
Carcinogenesis 9:131 (1988); Nutr Cancer 29:152 (1997); Arch Biochem Biphys 340:279 (1997)

>  <cas#>  (2475) 
2050-87-5

>  <source>  (2475) 
Allium spp

>  <status>  (2475) 
experimental

>  <tradename>  (2475) 
nan

>  <SMILES>  (2475) 
C=CCSSSCC=C

>  <standardized_failed>  (2475) 
False

$$$$

     RDKit          2D

 21 24  0  0  0  0  0  0  0  0999 V2000
    1.3167   -0.7167    0.0000 C   0  0  0  0  0  0  0  0  0  0  0  0
    0.8792   -1.1667    0.0000 C   0  0  0  0  0  0  0  0  0  0  0  0
    2.0042   -0.9792    0.0000 C   0  0  0  0  0  0  0  0  0  0  0  0
    0.8667   -1.8917    0.0000 O   0  0  0  0  0  0  0  0  0  0  0  0
    0.7167   -0.2542    0.0000 O   0  0  0  0  0  0  0  0  0  0  0  0
    0.1292   -1.1667    0.0000 O   0  0  0  0  0  0  0  0  0  0  0  0
    1.5417   -2.1542    0.0000 C   0  0  0  0  0  0  0  0  0  0  0  0
    1.2042   -0.0042    0.0000 C   0  0  0  0  0  0  0  0  0  0  0  0
   -0.5083   -0.7292    0.0000 C   0  0  0  0  0  0  0  0  0  0  0  0
    2.1167   -1.7042    0.0000 C   0  0  0  0  0  0  0  0  0  0  0  0
    0.2167   -0.6292    0.0000 O   0  0  0  0  0  0  0  0  0  0  0  0
    2.5667   -0.5167    0.0000 C   0  0  0  0  0  0  0  0  0  0  0  0
    0.4042    0.3458    0.0000 C   0  0  0  0  0  0  0  0  0  0  0  0
    1.7667    0.4708    0.0000 C   0  0  0  0  0  0  0  0  0  0  0  0
    2.4542    0.2083    0.0000 C   0  0  0  0  0  0  0  0  0  0  0  0
   -0.3083    0.0208    0.0000 C   0  0  0  0  0  0  0  0  0  0  0  0
    1.6542   -2.8792    0.0000 O   0  0  0  0  0  0  0  0  0  0  0  0
   -1.2583   -1.0667    0.0000 C   0  0  0  0  0  0  0  0  0  0  0  0
    2.8167   -1.8917    0.0000 C   0  0  0  0  0  0  0  0  0  0  0  0
    1.7667    1.1958    0.0000 C   0  0  0  0  0  0  0  0  0  0  0  0
    1.0792   -3.3375    0.0000 C   0  0  0  0  0  0  0  0  0  0  0  0
  2  1  1  0
  3  1  1  0
  2  4  1  6
  1  5  1  6
  6  2  1  0
  7 10  1  0
  8  1  1  0
  9 11  1  0
 10  3  1  0
 11  5  1  0
  3 12  1  1
  8 13  1  1
 14  8  1  0
 15 14  1  0
 16 13  1  0
 17  7  1  0
  9 18  1  6
 10 19  1  1
 14 20  1  6
 21 17  1  0
 12 15  1  0
 16  9  1  0
  6  9  1  0
  4  7  1  0
M  END
>  <ID>  (2476) 


>  <MOLENAME>  (2476) 
ARTEMETHER

>  <therap>  (2476) 
antimalarial

>  <ref>  (2476) 
N Engl J Med 335:69 (1996); Expert Opin Invest Drugs 9:1815 (2000)

>  <cas#>  (2476) 
71963-77-4

>  <source>  (2476) 
semisynthetic; SM-224

>  <status>  (2476) 
USAN, INN, BAN

>  <tradename>  (2476) 
PALUTHER

>  <SMILES>  (2476) 
COC1O[C@@H]2O[C@@]3(C)CC[C@H]4[C@H](C)CC[C@@H]([C@H]1C)[C@]42OO3

>  <standardized_failed>  (2476) 
False

$$$$

     RDKit          2D

 17 18  0  0  0  0  0  0  0  0999 V2000
    2.7500   -2.4917    0.0000 C   0  0  0  0  0  0  0  0  0  0  0  0
    1.9250   -2.4917    0.0000 C   0  0  0  0  0  0  0  0  0  0  0  0
    3.1625   -3.2125    0.0000 C   0  0  0  0  0  0  0  0  0  0  0  0
    1.5125   -3.2042    0.0000 C   0  0  0  0  0  0  0  0  0  0  0  0
    1.5125   -1.7792    0.0000 C   0  0  0  0  0  0  0  0  0  0  0  0
    2.7417   -3.9250    0.0000 C   0  0  0  0  0  0  0  0  0  0  0  0
    3.9792   -3.2042    0.0000 C   0  0  0  0  0  0  0  0  0  0  0  0
    3.9792   -4.6375    0.0000 C   0  0  0  0  0  0  0  0  0  0  0  0
    0.2792   -2.5000    0.0000 C   0  0  0  0  0  0  0  0  0  0  0  0
    3.1542   -4.6375    0.0000 C   0  0  0  0  0  0  0  0  0  0  0  0
    0.6875   -3.2042    0.0000 C   0  0  0  0  0  0  0  0  0  0  0  0
    4.3917   -3.9167    0.0000 C   0  0  0  0  0  0  0  0  0  0  0  0
    0.6875   -1.7875    0.0000 C   0  0  0  0  0  0  0  0  0  0  0  0
   -0.5458   -2.5000    0.0000 O   0  0  0  0  0  0  0  0  0  0  0  0
    4.3917   -5.3542    0.0000 O   0  0  0  0  0  0  0  0  0  0  0  0
    2.7417   -1.6667    0.0000 C   0  0  0  0  0  0  0  0  0  0  0  0
    3.5750   -2.4917    0.0000 C   0  0  0  0  0  0  0  0  0  0  0  0
  2  1  1  0
  3  1  1  0
  4  2  2  0
  5  2  1  0
  6  3  2  0
  7  3  1  0
  8 12  1  0
  9 13  1  0
 10  6  1  0
 11  4  1  0
 12  7  2  0
 13  5  2  0
 14  9  1  0
 15  8  1  0
 16  1  1  0
 17  1  1  0
  8 10  2  0
 11  9  2  0
M  END
>  <ID>  (2477) 


>  <MOLENAME>  (2477) 
BISPHENOL A

>  <therap>  (2477) 
endocrine disruptor, plastic monomer

>  <ref>  (2477) 
nan

>  <cas#>  (2477) 
80-05-7

>  <source>  (2477) 
synthetic

>  <status>  (2477) 
undetermined activity

>  <tradename>  (2477) 
nan

>  <SMILES>  (2477) 
CC(C)(c1ccc(O)cc1)c1ccc(O)cc1

>  <standardized_failed>  (2477) 
False

$$$$

     RDKit          2D

 20 20  0  0  0  0  0  0  0  0999 V2000
    6.6667   -8.0125    0.0000 S   0  0  0  0  0  0  0  0  0  0  0  0
    3.8042   -8.0125    0.0000 S   0  0  0  0  0  0  0  0  0  0  0  0
    4.5167   -6.7750    0.0000 C   0  0  0  0  0  0  0  0  0  0  0  0
    5.9500   -7.6000    0.0000 C   0  0  0  0  0  0  0  0  0  0  0  0
    4.5167   -7.6000    0.0000 C   0  0  0  0  0  0  0  0  0  0  0  0
    3.8042   -6.3625    0.0000 C   0  0  0  0  0  0  0  0  0  0  0  0
    5.2292   -8.0125    0.0000 C   0  0  0  0  0  0  0  0  0  0  0  0
    5.2292   -6.3542    0.0000 C   0  0  0  0  0  0  0  0  0  0  0  0
    5.9500   -6.7667    0.0000 C   0  0  0  0  0  0  0  0  0  0  0  0
    3.8042   -5.5375    0.0000 C   0  0  0  0  0  0  0  0  0  0  0  0
    7.2292   -8.5792    0.0000 O   0  0  0  0  0  0  0  0  0  0  0  0
    6.1667   -8.6417    0.0000 O   0  0  0  0  0  0  0  0  0  0  0  0
    4.3000   -8.6417    0.0000 O   0  0  0  0  0  0  0  0  0  0  0  0
    3.2375   -8.5792    0.0000 O   0  0  0  0  0  0  0  0  0  0  0  0
    7.4167   -7.5542    0.0000 N   0  0  0  0  0  0  0  0  0  0  0  0
    3.0542   -7.5542    0.0000 N   0  0  0  0  0  0  0  0  0  0  0  0
    3.0917   -6.7750    0.0000 Cl  0  0  0  0  0  0  0  0  0  0  0  0
    4.5167   -5.1250    0.0000 Cl  0  0  0  0  0  0  0  0  0  0  0  0
    3.0917   -5.1250    0.0000 Cl  0  0  0  0  0  0  0  0  0  0  0  0
    6.6625   -6.3542    0.0000 N   0  0  0  0  0  0  0  0  0  0  0  0
  2  5  1  0
  3  8  2  0
  4  1  1  0
  5  7  2  0
  6  3  1  0
  7  4  1  0
  8  9  1  0
  9  4  2  0
 10  6  2  0
 11  1  2  0
 12  1  2  0
 13  2  2  0
 14  2  2  0
 15  1  1  0
 16  2  1  0
 17  6  1  0
 18 10  1  0
 19 10  1  0
 20  9  1  0
  3  5  1  0
M  END
>  <ID>  (2478) 


>  <MOLENAME>  (2478) 
CLORSULON

>  <therap>  (2478) 
antiparasitic, fasciolicide

>  <ref>  (2478) 
Br Vet J 133:211 (1977); J Parasitol 65:555 (1979); 68:603 (1982)

>  <cas#>  (2478) 
60200-06-8

>  <source>  (2478) 
synthetic; MK-401

>  <status>  (2478) 
USP, INN, BAN

>  <tradename>  (2478) 
VETRANAL

>  <SMILES>  (2478) 
Nc1c(S(N)(=O)=O)cc(S(N)(=O)=O)c(C(Cl)=C(Cl)Cl)c1

>  <standardized_failed>  (2478) 
False

$$$$

     RDKit          2D

 16 17  0  0  0  0  0  0  0  0999 V2000
    2.5042   -1.8125    0.0000 C   0  0  0  0  0  0  0  0  0  0  0  0
    1.7917   -1.3917    0.0000 N   0  0  0  0  0  0  0  0  0  0  0  0
    3.2167   -1.4000    0.0000 N   0  0  0  0  0  0  0  0  0  0  0  0
    2.5042   -2.6375    0.0000 O   0  0  0  0  0  0  0  0  0  0  0  0
    3.9292   -1.8167    0.0000 C   0  0  0  0  0  0  0  0  0  0  0  0
    1.0750   -1.8042    0.0000 C   0  0  0  0  0  0  0  0  0  0  0  0
    0.3625   -1.3917    0.0000 C   0  0  0  0  0  0  0  0  0  0  0  0
    3.9250   -2.6417    0.0000 C   0  0  0  0  0  0  0  0  0  0  0  0
    4.6417   -1.4042    0.0000 C   0  0  0  0  0  0  0  0  0  0  0  0
    1.0750   -2.6292    0.0000 C   0  0  0  0  0  0  0  0  0  0  0  0
    4.6375   -3.0542    0.0000 C   0  0  0  0  0  0  0  0  0  0  0  0
    5.3542   -1.8167    0.0000 C   0  0  0  0  0  0  0  0  0  0  0  0
   -0.3458   -1.8042    0.0000 C   0  0  0  0  0  0  0  0  0  0  0  0
    0.3625   -3.0417    0.0000 C   0  0  0  0  0  0  0  0  0  0  0  0
    5.3542   -2.6500    0.0000 C   0  0  0  0  0  0  0  0  0  0  0  0
   -0.3458   -2.6292    0.0000 C   0  0  0  0  0  0  0  0  0  0  0  0
  2  1  1  0
  3  1  1  0
  4  1  2  0
  5  3  1  0
  6  2  1  0
  7  6  1  0
  8  5  1  0
  9  5  1  0
 10  6  1  0
 11  8  1  0
 12  9  1  0
 13  7  1  0
 14 10  1  0
 15 12  1  0
 16 14  1  0
 11 15  1  0
 13 16  1  0
M  END
>  <ID>  (2479) 


>  <MOLENAME>  (2479) 
DICYCLOHEXYLUREA

>  <therap>  (2479) 
antihypertensive, inhibitor of glycoside anomerization

>  <ref>  (2479) 
Novosibirisk Inst Org Chem:131 (1998); Nanoscale Res Lett  2:291 (2007); Basic Clin Pharmacol Toxicol 102(5):453-8 (2008),

>  <cas#>  (2479) 
2387-23-7

>  <source>  (2479) 
synthetic

>  <status>  (2479) 
experimental

>  <tradename>  (2479) 
nan

>  <SMILES>  (2479) 
O=C(NC1CCCCC1)NC1CCCCC1

>  <standardized_failed>  (2479) 
False

$$$$

     RDKit          2D

 19 21  0  0  0  0  0  0  0  0999 V2000
    6.4917   -4.5792    0.0000 C   0  0  0  0  0  0  0  0  0  0  0  0
    6.4917   -3.7542    0.0000 C   0  0  0  0  0  0  0  0  0  0  0  0
    5.7792   -5.0000    0.0000 C   0  0  0  0  0  0  0  0  0  0  0  0
    5.7750   -3.3417    0.0000 O   0  0  0  0  0  0  0  0  0  0  0  0
    5.0667   -4.5875    0.0000 C   0  0  0  0  0  0  0  0  0  0  0  0
    5.0667   -3.7625    0.0000 C   0  0  0  0  0  0  0  0  0  0  0  0
    7.2000   -3.3375    0.0000 C   0  0  0  0  0  0  0  0  0  0  0  0
    5.7792   -5.8250    0.0000 O   0  0  0  0  0  0  0  0  0  0  0  0
    7.2125   -4.9917    0.0000 O   0  0  0  0  0  0  0  0  0  0  0  0
    7.9167   -3.7500    0.0000 C   0  0  0  0  0  0  0  0  0  0  0  0
    7.1917   -2.5167    0.0000 C   0  0  0  0  0  0  0  0  0  0  0  0
    8.6250   -2.5042    0.0000 C   0  0  0  0  0  0  0  0  0  0  0  0
    7.9042   -2.1000    0.0000 C   0  0  0  0  0  0  0  0  0  0  0  0
    8.6292   -3.3292    0.0000 C   0  0  0  0  0  0  0  0  0  0  0  0
    4.3500   -5.0042    0.0000 C   0  0  0  0  0  0  0  0  0  0  0  0
    9.3375   -2.0875    0.0000 O   0  0  0  0  0  0  0  0  0  0  0  0
    4.3500   -3.3500    0.0000 C   0  0  0  0  0  0  0  0  0  0  0  0
    3.6375   -4.5917    0.0000 C   0  0  0  0  0  0  0  0  0  0  0  0
    3.6375   -3.7625    0.0000 C   0  0  0  0  0  0  0  0  0  0  0  0
  2  1  2  0
  3  1  1  0
  4  2  1  0
  5  3  1  0
  6  5  2  0
  7  2  1  0
  8  3  2  0
  9  1  1  0
 10  7  2  0
 11  7  1  0
 12 13  1  0
 13 11  2  0
 14 10  1  0
 15  5  1  0
 16 12  1  0
 17  6  1  0
 18 15  2  0
 19 18  1  0
  4  6  1  0
 14 12  2  0
 19 17  2  0
M  END
>  <ID>  (2480) 


>  <MOLENAME>  (2480) 
3.4'-DIHYDROXYFLAVONE

>  <therap>  (2480) 
nan

>  <ref>  (2480) 
J Org Chem 32:3992 (1967)

>  <cas#>  (2480) 
14919-49-4

>  <source>  (2480) 
Millettia zechiana (Me ether)

>  <status>  (2480) 
undetermined activity

>  <tradename>  (2480) 
nan

>  <SMILES>  (2480) 
O=c1c(O)c(-c2ccc(O)cc2)oc2c1cccc2

>  <standardized_failed>  (2480) 
False

$$$$

     RDKit          2D

 10  8  0  0  0  0  0  0  0  0999 V2000
    4.1792   -2.8417    0.0000 S   0  0  0  0  0  0  0  0  0  0  0  0
    5.5917   -4.1917    0.0000 C   0  0  0  0  0  0  0  0  0  0  0  0
    4.5167   -3.4292    0.0000 O   0  0  0  0  0  0  0  0  0  0  0  0
    3.8375   -2.2500    0.0000 O   0  0  0  0  0  0  0  0  0  0  0  0
    5.5917   -3.3667    0.0000 N   0  0  0  0  0  0  0  0  0  0  0  0
    4.8792   -4.6042    0.0000 N   0  0  0  0  0  0  0  0  0  0  0  0
    3.5875   -3.1792    0.0000 O   0  0  0  0  0  0  0  0  0  0  0  0
    4.7750   -2.5042    0.0000 O   0  0  0  0  0  0  0  0  0  0  0  0
    6.3042   -4.6042    0.0000 N   0  0  0  0  0  0  0  0  0  0  0  0
    4.1625   -4.1917    0.0000 N   0  0  0  0  0  0  0  0  0  0  0  0
  3  1  2  0
  4  1  2  0
  5  2  2  0
  6  2  1  0
  7  1  1  0
  8  1  1  0
  9  2  1  0
 10  6  1  0
M  END
>  <ID>  (2481) 


>  <MOLENAME>  (2481) 
AMINOGUANIDINE HYDROCHLORIDE

>  <therap>  (2481) 
NO synthase inhibitor

>  <ref>  (2481) 
Arch Biochem Biophys 316:290 (1995); Eur J Pharmacol 262:179 (1995)

>  <cas#>  (2481) 
996-19-0

>  <source>  (2481) 
synthetic

>  <status>  (2481) 
experimental

>  <tradename>  (2481) 
nan

>  <SMILES>  (2481) 
N=C(N)NN

>  <standardized_failed>  (2481) 
False

$$$$

     RDKit          2D

 27 26  0  0  0  0  0  0  0  0999 V2000
    1.4792   -2.6875    0.0000 C   0  0  0  0  0  0  0  0  0  0  0  0
    5.7542   -2.6792    0.0000 C   0  0  0  0  0  0  0  0  0  0  0  0
    5.0417   -2.2667    0.0000 O   0  0  0  0  0  0  0  0  0  0  0  0
    2.1917   -2.2750    0.0000 O   0  0  0  0  0  0  0  0  0  0  0  0
    3.6167   -3.9250    0.0000 C   0  0  0  0  0  0  0  0  0  0  0  0
    2.9042   -2.6875    0.0000 C   0  0  0  0  0  0  0  0  0  0  0  0
    4.3292   -2.6792    0.0000 C   0  0  0  0  0  0  0  0  0  0  0  0
    0.7667   -2.2792    0.0000 N   0  0  0  0  0  0  0  0  0  0  0  0
    6.4667   -2.2667    0.0000 N   0  0  0  0  0  0  0  0  0  0  0  0
    3.6167   -2.2667    0.0000 C   0  0  0  0  0  0  0  0  0  0  0  0
    2.9042   -3.5125    0.0000 C   0  0  0  0  0  0  0  0  0  0  0  0
    4.3292   -3.5125    0.0000 C   0  0  0  0  0  0  0  0  0  0  0  0
    1.4792   -3.5125    0.0000 O   0  0  0  0  0  0  0  0  0  0  0  0
    5.7542   -3.5042    0.0000 O   0  0  0  0  0  0  0  0  0  0  0  0
    4.3292   -5.9792    0.0000 N   0  0  0  0  0  0  0  0  0  0  0  0
    3.6167   -4.7417    0.0000 C   0  0  0  0  0  0  0  0  0  0  0  0
    5.0417   -6.3917    0.0000 C   0  0  0  0  0  0  0  0  0  0  0  0
    4.3292   -5.1542    0.0000 C   0  0  0  0  0  0  0  0  0  0  0  0
    5.9917   -4.9917    0.0000 Cl  0  0  0  0  0  0  0  0  0  0  0  0
    2.9000   -5.1542    0.0000 O   0  0  0  0  0  0  0  0  0  0  0  0
    6.4667   -1.4417    0.0000 C   0  0  0  0  0  0  0  0  0  0  0  0
    0.0542   -2.6917    0.0000 C   0  0  0  0  0  0  0  0  0  0  0  0
    7.1792   -2.6750    0.0000 C   0  0  0  0  0  0  0  0  0  0  0  0
    0.7625   -1.4542    0.0000 C   0  0  0  0  0  0  0  0  0  0  0  0
    5.0417   -7.2125    0.0000 C   0  0  0  0  0  0  0  0  0  0  0  0
    5.7542   -5.9792    0.0000 C   0  0  0  0  0  0  0  0  0  0  0  0
    5.7542   -6.8042    0.0000 C   0  0  0  0  0  0  0  0  0  0  0  0
  2  3  1  0
  3  7  1  0
  4  1  1  0
  5 11  2  0
  6  4  1  0
  7 10  1  0
  8  1  1  0
  9  2  1  0
 10  6  2  0
 11  6  1  0
 12  5  1  0
 13  1  2  0
 14  2  2  0
 15 18  1  0
 16  5  1  0
 17 15  1  0
 18 16  1  0
 20 16  1  0
 21  9  1  0
 22  8  1  0
 23  9  1  0
 24  8  1  0
 25 17  1  0
 26 17  1  0
 27 17  1  0
 12  7  2  0
M  END
>  <ID>  (2482) 


>  <MOLENAME>  (2482) 
BAMBUTEROL HYDROCHLORIDE

>  <therap>  (2482) 
beta adrenergic agonist, bronchodilator, cholinesterase inhibitor

>  <ref>  (2482) 
Acta Anaeth Scand 34:595 (1990); Chest c103:771 (1993)

>  <cas#>  (2482) 
81732-46-9

>  <source>  (2482) 
synthetic

>  <status>  (2482) 
INN, BAN

>  <tradename>  (2482) 
BAMBEC

>  <SMILES>  (2482) 
CN(C)C(=O)Oc1cc(C(O)CNC(C)(C)C)cc(OC(=O)N(C)C)c1

>  <standardized_failed>  (2482) 
False

$$$$

     RDKit          2D

 26 30  0  0  0  0  0  0  0  0999 V2000
    5.5167   -3.7667    0.0000 C   0  0  0  0  0  0  0  0  0  0  0  0
    5.5167   -4.5917    0.0000 C   0  0  0  0  0  0  0  0  0  0  0  0
    4.0917   -3.7667    0.0000 C   0  0  0  0  0  0  0  0  0  0  0  0
    6.4667   -3.9042    0.0000 C   0  0  0  0  0  0  0  0  0  0  0  0
    4.8042   -3.3542    0.0000 C   0  0  0  0  0  0  0  0  0  0  0  0
    4.0917   -4.5917    0.0000 C   0  0  0  0  0  0  0  0  0  0  0  0
    4.8042   -5.0042    0.0000 C   0  0  0  0  0  0  0  0  0  0  0  0
    7.0000   -3.0000    0.0000 C   0  0  0  0  0  0  0  0  0  0  0  0
    6.2292   -3.3542    0.0000 C   0  0  0  0  0  0  0  0  0  0  0  0
    4.7542   -4.0917    0.0000 O   0  0  0  0  0  0  0  0  0  0  0  0
    6.2292   -2.5292    0.0000 C   0  0  0  0  0  0  0  0  0  0  0  0
    4.2542   -2.8750    0.0000 C   0  0  0  0  0  0  0  0  0  0  0  0
    3.3750   -5.0042    0.0000 C   0  0  0  0  0  0  0  0  0  0  0  0
    4.8042   -2.5292    0.0000 C   0  0  0  0  0  0  0  0  0  0  0  0
    5.5167   -2.1167    0.0000 C   0  0  0  0  0  0  0  0  0  0  0  0
    3.3750   -3.3542    0.0000 C   0  0  0  0  0  0  0  0  0  0  0  0
    7.0500   -4.4875    0.0000 O   0  0  0  0  0  0  0  0  0  0  0  0
    6.2375   -5.0042    0.0000 O   0  0  0  0  0  0  0  0  0  0  0  0
    7.8000   -2.8000    0.0000 C   0  0  0  0  0  0  0  0  0  0  0  0
    2.6667   -4.5917    0.0000 C   0  0  0  0  0  0  0  0  0  0  0  0
    2.6667   -3.7667    0.0000 C   0  0  0  0  0  0  0  0  0  0  0  0
    4.8042   -5.8292    0.0000 O   0  0  0  0  0  0  0  0  0  0  0  0
    7.1250   -3.7167    0.0000 O   0  0  0  0  0  0  0  0  0  0  0  0
    3.3750   -2.5292    0.0000 O   0  0  0  0  0  0  0  0  0  0  0  0
    3.9542   -5.5917    0.0000 C   0  0  0  0  0  0  0  0  0  0  0  0
    2.7875   -5.5917    0.0000 C   0  0  0  0  0  0  0  0  0  0  0  0
  2  1  1  0
  3  5  1  0
  1  4  1  1
  5  1  1  0
  6  3  1  0
  7  2  1  0
  8  4  1  0
  1  9  1  0
  2 10  1  0
 11  9  1  0
  3 12  1  6
  6 13  1  6
  5 14  1  6
 11 15  1  1
 16  3  1  0
 17  4  2  0
  2 18  1  6
 19  8  2  0
 20 21  1  0
 21 16  1  0
  7 22  1  6
  9 23  1  1
 16 24  1  6
 25 13  1  0
 26 13  1  0
 11  8  1  0
  6  7  1  0
 15 14  1  0
 12 10  1  0
 20 13  1  0
M  END
>  <ID>  (2483) 


>  <MOLENAME>  (2483) 
RUBESCENSIN A

>  <therap>  (2483) 
antibacterial, antineoplastic, insect growth inhibitor

>  <ref>  (2483) 
Chem Pharm Bull 18:871 (1970); 20:1752 (1972); 24:2118 (1976); 29:3208 (1981); 37:1472 (1989); Agric Biol Chem 38:1261 (1974); Planta Med 54:414 (1988)

>  <cas#>  (2483) 
28957-04-2

>  <source>  (2483) 
Isodon trichocarpus, I japonicus, Rabdosia spp

>  <status>  (2483) 
experimental

>  <tradename>  (2483) 
nan

>  <SMILES>  (2483) 
C=C1C(=O)[C@@]23[C@@H](CC[C@@H]1[C@H]2O)[C@@]12CO[C@]3(O)[C@H](O)[C@@H]1C(C)(C)CC[C@@H]2O

>  <standardized_failed>  (2483) 
False

$$$$

     RDKit          2D

 18 20  0  0  0  0  0  0  0  0999 V2000
    5.8667   -4.1667    0.0000 N   0  0  0  0  0  0  0  0  0  0  0  0
    3.6542   -3.0417    0.0000 N   0  0  0  0  0  0  0  0  0  0  0  0
    5.0792   -3.0417    0.0000 C   0  0  0  0  0  0  0  0  0  0  0  0
    4.3667   -4.2792    0.0000 C   0  0  0  0  0  0  0  0  0  0  0  0
    5.1917   -4.7167    0.0000 C   0  0  0  0  0  0  0  0  0  0  0  0
    4.3667   -2.6292    0.0000 C   0  0  0  0  0  0  0  0  0  0  0  0
    3.6542   -3.8667    0.0000 C   0  0  0  0  0  0  0  0  0  0  0  0
    5.8792   -3.2750    0.0000 C   0  0  0  0  0  0  0  0  0  0  0  0
    5.0792   -3.8667    0.0000 C   0  0  0  0  0  0  0  0  0  0  0  0
    6.6167   -4.5792    0.0000 C   0  0  0  0  0  0  0  0  0  0  0  0
    2.9292   -2.6292    0.0000 C   0  0  0  0  0  0  0  0  0  0  0  0
    7.2292   -3.5292    0.0000 I   0  0  0  0  0  0  0  0  0  0  0  0
    5.1917   -5.4167    0.0000 C   0  0  0  0  0  0  0  0  0  0  0  0
    4.3667   -1.7917    0.0000 C   0  0  0  0  0  0  0  0  0  0  0  0
    6.6292   -5.4292    0.0000 C   0  0  0  0  0  0  0  0  0  0  0  0
    2.9292   -1.7917    0.0000 C   0  0  0  0  0  0  0  0  0  0  0  0
    3.6542   -1.3792    0.0000 C   0  0  0  0  0  0  0  0  0  0  0  0
    5.9042   -5.8375    0.0000 C   0  0  0  0  0  0  0  0  0  0  0  0
  2  6  1  0
  3  8  1  1
  4  5  1  0
  5  1  1  0
  6  3  1  0
  4  7  1  6
  8  1  1  0
  9  3  1  0
 10  1  1  0
 11  2  1  0
  5 13  1  1
  6 14  1  6
 15 10  1  0
 16 17  1  0
 17 14  1  0
 18 15  1  0
 13 18  1  0
  4  9  1  0
  7  2  1  0
 16 11  1  0
M  END
>  <ID>  (2484) 


>  <MOLENAME>  (2484) 
SPARTEINE HYDROIODIDE

>  <therap>  (2484) 
oxytocic

>  <ref>  (2484) 
J Chem Soc 1949: 663

>  <cas#>  (2484) 
nan

>  <source>  (2484) 
Lupinus spp and other Leguminosae

>  <status>  (2484) 
experimental

>  <tradename>  (2484) 
nan

>  <SMILES>  (2484) 
C1CCN2C[C@H]3C[C@@H](CN4CCCC[C@H]34)[C@@H]2C1

>  <standardized_failed>  (2484) 
False

$$$$

     RDKit          2D

 27 29  0  0  0  0  0  0  0  0999 V2000
   11.1375   -2.2292    0.0000 N   0  0  0  0  0  0  0  0  0  0  0  0
   10.4250   -2.6417    0.0000 C   0  0  0  0  0  0  0  0  0  0  0  0
   11.8542   -3.4667    0.0000 C   0  0  0  0  0  0  0  0  0  0  0  0
    9.7125   -2.2292    0.0000 C   0  0  0  0  0  0  0  0  0  0  0  0
   11.8542   -2.6417    0.0000 C   0  0  0  0  0  0  0  0  0  0  0  0
   10.4250   -3.4667    0.0000 C   0  0  0  0  0  0  0  0  0  0  0  0
    9.7125   -1.4042    0.0000 C   0  0  0  0  0  0  0  0  0  0  0  0
   12.5667   -3.8792    0.0000 C   0  0  0  0  0  0  0  0  0  0  0  0
   11.1375   -3.8792    0.0000 C   0  0  0  0  0  0  0  0  0  0  0  0
    9.0000   -2.6417    0.0000 C   0  0  0  0  0  0  0  0  0  0  0  0
    8.2792   -2.2292    0.0000 C   0  0  0  0  0  0  0  0  0  0  0  0
    9.0000   -0.9917    0.0000 C   0  0  0  0  0  0  0  0  0  0  0  0
    8.2792   -1.4042    0.0000 C   0  0  0  0  0  0  0  0  0  0  0  0
   11.1375   -1.4042    0.0000 C   0  0  0  0  0  0  0  0  0  0  0  0
   12.5625   -4.7042    0.0000 C   0  0  0  0  0  0  0  0  0  0  0  0
   10.4250   -0.9917    0.0000 C   0  0  0  0  0  0  0  0  0  0  0  0
   11.1292   -4.7042    0.0000 C   0  0  0  0  0  0  0  0  0  0  0  0
   11.8417   -5.1167    0.0000 C   0  0  0  0  0  0  0  0  0  0  0  0
   13.2875   -3.4667    0.0000 O   0  0  0  0  0  0  0  0  0  0  0  0
    7.5625   -2.6417    0.0000 O   0  0  0  0  0  0  0  0  0  0  0  0
    7.5625   -0.9917    0.0000 O   0  0  0  0  0  0  0  0  0  0  0  0
   13.2875   -5.1292    0.0000 O   0  0  0  0  0  0  0  0  0  0  0  0
   12.6167   -1.7792    0.0000 O   0  0  0  0  0  0  0  0  0  0  0  0
   13.2917   -2.6417    0.0000 C   0  0  0  0  0  0  0  0  0  0  0  0
    6.8500   -1.4042    0.0000 C   0  0  0  0  0  0  0  0  0  0  0  0
    6.8375   -2.2292    0.0000 C   0  0  0  0  0  0  0  0  0  0  0  0
   13.2792   -5.9542    0.0000 C   0  0  0  0  0  0  0  0  0  0  0  0
  2  1  2  0
  3  5  2  0
  4  2  1  0
  5  1  1  0
  6  2  1  0
  7 16  1  0
  8  3  1  0
  9  3  1  0
 10  4  2  0
 11 10  1  0
 12  7  2  0
 13 12  1  0
 14  1  1  0
 15  8  2  0
 16 14  1  0
 17  9  1  0
 18 17  2  0
 19  8  1  0
 20 11  1  0
 21 13  1  0
 22 15  1  0
 24 19  1  0
 25 21  1  0
 26 20  1  0
 27 22  1  0
  7  4  1  0
  9  6  2  0
 13 11  2  0
 15 18  1  0
M  CHG  1   1   1
M  END
>  <ID>  (2485) 


>  <MOLENAME>  (2485) 
PALMATINE

>  <therap>  (2485) 
uterine contractant, antibacterial, antiarrhythmic, inotropic, adrenocorticotropic, anticholinesterase, analgesic

>  <ref>  (2485) 
Ber 58: 2267 (1925); J Nat Prod 28: 73 (1965) 

>  <cas#>  (2485) 
3486-67-7

>  <source>  (2485) 
Jateorhesa palmata, Berberis spp

>  <status>  (2485) 
experimental

>  <tradename>  (2485) 
nan

>  <SMILES>  (2485) 
COc1c(OC)cc2c(c1)CC[n+]1c-2cc2ccc(OC)c(OC)c2c1

>  <standardized_failed>  (2485) 
False

$$$$

     RDKit          2D

 16 17  0  0  0  0  0  0  0  0999 V2000
    5.4667   -3.8292    0.0000 N   0  0  0  0  0  0  0  0  0  0  0  0
    4.7542   -3.4167    0.0000 C   0  0  0  0  0  0  0  0  0  0  0  0
    6.1917   -3.4125    0.0000 C   0  0  0  0  0  0  0  0  0  0  0  0
    4.7542   -2.5875    0.0000 N   0  0  0  0  0  0  0  0  0  0  0  0
    6.1875   -2.5875    0.0000 C   0  0  0  0  0  0  0  0  0  0  0  0
    5.4667   -2.1750    0.0000 C   0  0  0  0  0  0  0  0  0  0  0  0
    6.9667   -2.3250    0.0000 N   0  0  0  0  0  0  0  0  0  0  0  0
    6.9792   -3.6625    0.0000 N   0  0  0  0  0  0  0  0  0  0  0  0
    7.4625   -2.9917    0.0000 C   0  0  0  0  0  0  0  0  0  0  0  0
    5.4750   -4.6542    0.0000 C   0  0  0  0  0  0  0  0  0  0  0  0
    4.0417   -3.8292    0.0000 O   0  0  0  0  0  0  0  0  0  0  0  0
    5.4667   -1.3500    0.0000 O   0  0  0  0  0  0  0  0  0  0  0  0
    4.0417   -2.1792    0.0000 C   0  0  0  0  0  0  0  0  0  0  0  0
    4.7542   -5.0667    0.0000 C   0  0  0  0  0  0  0  0  0  0  0  0
    4.7625   -5.8917    0.0000 C   0  0  0  0  0  0  0  0  0  0  0  0
    4.0417   -4.6542    0.0000 C   0  0  0  0  0  0  0  0  0  0  0  0
  2  1  1  0
  3  1  1  0
  4  2  1  0
  5  3  2  0
  6  5  1  0
  7  5  1  0
  8  3  1  0
  9  8  1  0
 10  1  1  0
 11  2  2  0
 12  6  2  0
 13  4  1  0
 14 10  1  0
 15 14  1  0
 16 14  1  0
  9  7  2  0
  6  4  1  0
M  END
>  <ID>  (2486) 


>  <MOLENAME>  (2486) 
3-ISOBUTYL-1-METHYLXANTHINE

>  <therap>  (2486) 
phosphodiesterase inhibitor

>  <ref>  (2486) 
Mol Pharmacol 6:597 (1970)

>  <cas#>  (2486) 
28822-58-4

>  <source>  (2486) 
synthetic; IBMX

>  <status>  (2486) 
experimental

>  <tradename>  (2486) 
nan

>  <SMILES>  (2486) 
CC(C)Cn1c(=O)n(C)c(=O)c2c1[nH]cn2

>  <standardized_failed>  (2486) 
False

$$$$

     RDKit          2D

 20 21  0  0  0  0  0  0  0  0999 V2000
    3.3417  -17.7042    0.0000 C   0  0  0  0  0  0  0  0  0  0  0  0
    3.3500  -18.5292    0.0000 N   0  0  0  0  0  0  0  0  0  0  0  0
    4.0542  -17.2917    0.0000 C   0  0  0  0  0  0  0  0  0  0  0  0
    2.9417  -19.8042    0.0000 N   0  0  0  0  0  0  0  0  0  0  0  0
    4.0167  -19.0167    0.0000 N   0  0  0  0  0  0  0  0  0  0  0  0
    2.6792  -19.0167    0.0000 C   0  0  0  0  0  0  0  0  0  0  0  0
    3.7667  -19.8042    0.0000 C   0  0  0  0  0  0  0  0  0  0  0  0
    2.6292  -17.3000    0.0000 O   0  0  0  0  0  0  0  0  0  0  0  0
    4.7667  -17.7042    0.0000 C   0  0  0  0  0  0  0  0  0  0  0  0
    4.0542  -16.4667    0.0000 O   0  0  0  0  0  0  0  0  0  0  0  0
    1.9167  -17.7125    0.0000 C   0  0  0  0  0  0  0  0  0  0  0  0
    0.4917  -18.5417    0.0000 C   0  0  0  0  0  0  0  0  0  0  0  0
   -0.2250  -18.9542    0.0000 Cl  0  0  0  0  0  0  0  0  0  0  0  0
    1.2042  -17.3000    0.0000 C   0  0  0  0  0  0  0  0  0  0  0  0
    1.9167  -18.5417    0.0000 C   0  0  0  0  0  0  0  0  0  0  0  0
    0.4917  -17.7125    0.0000 C   0  0  0  0  0  0  0  0  0  0  0  0
    1.2042  -18.9542    0.0000 C   0  0  0  0  0  0  0  0  0  0  0  0
    4.7667  -18.5292    0.0000 C   0  0  0  0  0  0  0  0  0  0  0  0
    5.4792  -18.1167    0.0000 C   0  0  0  0  0  0  0  0  0  0  0  0
    5.4792  -17.2917    0.0000 C   0  0  0  0  0  0  0  0  0  0  0  0
  2  1  1  0
  3  1  1  0
  4  6  2  0
  5  2  1  0
  6  2  1  0
  7  5  2  0
  8  1  1  0
  9  3  1  0
 10  3  2  0
 11  8  1  0
 12 17  2  0
 13 12  1  0
 14 11  1  0
 15 11  2  0
 16 14  2  0
 17 15  1  0
 18  9  1  0
 19  9  1  0
 20  9  1  0
  4  7  1  0
 16 12  1  0
M  END
>  <ID>  (2487) 


>  <MOLENAME>  (2487) 
TRIADIMEFON

>  <therap>  (2487) 
antifungal, P450 inhibitor

>  <ref>  (2487) 
Biochem J 369:71 (2003)

>  <cas#>  (2487) 
43121-43-3

>  <source>  (2487) 
synthetic

>  <status>  (2487) 
agricultural use

>  <tradename>  (2487) 
nan

>  <SMILES>  (2487) 
CC(C)(C)C(=O)C(Oc1ccc(Cl)cc1)n1cncn1

>  <standardized_failed>  (2487) 
False

$$$$

     RDKit          2D

 29 33  0  0  0  0  0  0  0  0999 V2000
    4.8417   -1.5542    0.0000 C   0  0  0  0  0  0  0  0  0  0  0  0
    3.4167   -2.3875    0.0000 C   0  0  0  0  0  0  0  0  0  0  0  0
    4.8542   -2.3792    0.0000 C   0  0  0  0  0  0  0  0  0  0  0  0
    4.1375   -2.8000    0.0000 C   0  0  0  0  0  0  0  0  0  0  0  0
    3.4167   -1.5625    0.0000 C   0  0  0  0  0  0  0  0  0  0  0  0
    4.1292   -1.1417    0.0000 C   0  0  0  0  0  0  0  0  0  0  0  0
    4.1375   -3.6167    0.0000 C   0  0  0  0  0  0  0  0  0  0  0  0
    5.6417   -2.6292    0.0000 C   0  0  0  0  0  0  0  0  0  0  0  0
    2.7042   -2.8042    0.0000 C   0  0  0  0  0  0  0  0  0  0  0  0
    2.7042   -1.1500    0.0000 C   0  0  0  0  0  0  0  0  0  0  0  0
    4.1417   -5.2667    0.0000 C   0  0  0  0  0  0  0  0  0  0  0  0
    6.1167   -1.9542    0.0000 O   0  0  0  0  0  0  0  0  0  0  0  0
    5.6292   -1.2917    0.0000 C   0  0  0  0  0  0  0  0  0  0  0  0
    3.4250   -4.8542    0.0000 C   0  0  0  0  0  0  0  0  0  0  0  0
    4.8542   -4.8500    0.0000 C   0  0  0  0  0  0  0  0  0  0  0  0
    1.9917   -2.3917    0.0000 C   0  0  0  0  0  0  0  0  0  0  0  0
    1.9917   -1.5667    0.0000 C   0  0  0  0  0  0  0  0  0  0  0  0
    3.4167   -4.0292    0.0000 C   0  0  0  0  0  0  0  0  0  0  0  0
    4.8500   -4.0292    0.0000 C   0  0  0  0  0  0  0  0  0  0  0  0
    1.2042   -1.3125    0.0000 O   0  0  0  0  0  0  0  0  0  0  0  0
    1.2042   -2.6417    0.0000 O   0  0  0  0  0  0  0  0  0  0  0  0
    0.7250   -1.9792    0.0000 C   0  0  0  0  0  0  0  0  0  0  0  0
    5.9042   -3.4125    0.0000 O   0  0  0  0  0  0  0  0  0  0  0  0
    4.1250   -0.3167    0.0000 O   0  0  0  0  0  0  0  0  0  0  0  0
    4.1417   -6.0917    0.0000 O   0  0  0  0  0  0  0  0  0  0  0  0
    2.7042   -5.2667    0.0000 O   0  0  0  0  0  0  0  0  0  0  0  0
    5.5667   -5.2542    0.0000 O   0  0  0  0  0  0  0  0  0  0  0  0
    1.9917   -4.8625    0.0000 C   0  0  0  0  0  0  0  0  0  0  0  0
    5.5792   -6.0792    0.0000 C   0  0  0  0  0  0  0  0  0  0  0  0
  2  5  2  0
  3  1  1  0
  4  3  1  0
  5  6  1  0
  6  1  1  0
  4  7  1  6
  8  3  1  0
  9  2  1  0
 10  5  1  0
 11 15  2  0
 12 13  1  0
 13  1  1  0
 14 18  2  0
 15 19  1  0
 16 17  1  0
 17 10  2  0
 18  7  1  0
 19  7  2  0
 20 17  1  0
 21 16  1  0
 22 20  1  0
 23  8  2  0
  6 24  1  1
 25 11  1  0
 26 14  1  0
 27 15  1  0
 28 26  1  0
 29 27  1  0
  8 12  1  0
  4  2  1  0
 16  9  2  0
 14 11  1  0
 22 21  1  0
M  END
>  <ID>  (2488) 


>  <MOLENAME>  (2488) 
4'-DEMETHYLEPIPODOPHYLLOTOXIN

>  <therap>  (2488) 
antineoplastic

>  <ref>  (2488) 
Eur J Cancer Clin Oncol 24:1415 (1988)

>  <cas#>  (2488) 
nan

>  <source>  (2488) 
semisynthetic

>  <status>  (2488) 
experimental

>  <tradename>  (2488) 
nan

>  <SMILES>  (2488) 
COc1cc([C@@H]2c3c(cc4OCOc4c3)[C@@H](O)C3COC(=O)C32)cc(OC)c1O

>  <standardized_failed>  (2488) 
False

$$$$

     RDKit          2D

 27 26  0  0  0  0  0  0  0  0999 V2000
    3.5667   -1.5792    0.0000 P   0  0  0  0  0  0  0  0  0  0  0  0
    3.5625   -2.4042    0.0000 O   0  0  0  0  0  0  0  0  0  0  0  0
    3.5542   -0.7042    0.0000 O   0  0  0  0  0  0  0  0  0  0  0  0
    6.5125   -1.1417    0.0000 N   0  0  0  0  0  0  0  0  0  0  0  0
    4.3750   -1.5542    0.0000 O   0  0  0  0  0  0  0  0  0  0  0  0
    2.5667   -1.5792    0.0000 O   0  0  0  0  0  0  0  0  0  0  0  0
    5.0875   -1.1417    0.0000 C   0  0  0  0  0  0  0  0  0  0  0  0
    5.8000   -1.5542    0.0000 C   0  0  0  0  0  0  0  0  0  0  0  0
    7.2250   -0.7167    0.0000 C   0  0  0  0  0  0  0  0  0  0  0  0
    7.2250   -1.5542    0.0000 C   0  0  0  0  0  0  0  0  0  0  0  0
    6.5125   -0.3167    0.0000 C   0  0  0  0  0  0  0  0  0  0  0  0
    1.8542   -1.1667    0.0000 C   0  0  0  0  0  0  0  0  0  0  0  0
    1.1417   -1.5792    0.0000 C   0  0  0  0  0  0  0  0  0  0  0  0
   -3.1333    0.0708    0.0000 C   0  0  0  0  0  0  0  0  0  0  0  0
   -3.8458   -0.3417    0.0000 C   0  0  0  0  0  0  0  0  0  0  0  0
   -0.9958   -1.1667    0.0000 C   0  0  0  0  0  0  0  0  0  0  0  0
   -0.2833   -1.5792    0.0000 C   0  0  0  0  0  0  0  0  0  0  0  0
    0.4292   -1.1667    0.0000 C   0  0  0  0  0  0  0  0  0  0  0  0
   -5.2708   -1.1667    0.0000 C   0  0  0  0  0  0  0  0  0  0  0  0
   -4.5583   -1.5792    0.0000 C   0  0  0  0  0  0  0  0  0  0  0  0
   -3.8458   -1.1667    0.0000 C   0  0  0  0  0  0  0  0  0  0  0  0
   -3.1333   -1.5792    0.0000 C   0  0  0  0  0  0  0  0  0  0  0  0
   -5.2708   -0.3417    0.0000 C   0  0  0  0  0  0  0  0  0  0  0  0
   -4.5583    0.0708    0.0000 C   0  0  0  0  0  0  0  0  0  0  0  0
   -1.7083   -1.5792    0.0000 C   0  0  0  0  0  0  0  0  0  0  0  0
   -2.4208   -1.1667    0.0000 C   0  0  0  0  0  0  0  0  0  0  0  0
   -2.4208   -0.3417    0.0000 C   0  0  0  0  0  0  0  0  0  0  0  0
  2  1  1  0
  3  1  2  0
  4  8  1  0
  5  1  1  0
  6  1  1  0
  7  5  1  0
  8  7  1  0
  9  4  1  0
 10  4  1  0
 11  4  1  0
 12  6  1  0
 13 12  1  0
 14 15  1  0
 15 24  1  0
 16 17  1  0
 17 18  1  0
 18 13  1  0
 19 20  1  0
 20 21  1  0
 21 22  1  0
 22 26  1  0
 23 19  1  0
 24 23  1  0
 25 16  1  0
 26 25  1  0
 27 14  1  0
M  CHG  2   2  -1   4   1
M  END
>  <ID>  (2489) 


>  <MOLENAME>  (2489) 
MILTEFOSINE [5mM]

>  <therap>  (2489) 
antineoplastic

>  <ref>  (2489) 
Cancer Treat Rev 17:233, 243 (1990); N Engl J Med 347:1739 (2002)

>  <cas#>  (2489) 
58066-85-6

>  <source>  (2489) 
synthetic; D-18506, HDPC

>  <status>  (2489) 
INN, BAN

>  <tradename>  (2489) 
MILTEX

>  <SMILES>  (2489) 
CCCCCCCCCCCCCCCCOP(=O)([O-])OCC[N+](C)(C)C

>  <standardized_failed>  (2489) 
False

$$$$

     RDKit          2D

 39 41  0  0  0  0  0  0  0  0999 V2000
    3.9917   -1.4500    0.0000 N   0  0  0  0  0  0  0  0  0  0  0  0
    3.9917   -0.6250    0.0000 C   0  0  0  0  0  0  0  0  0  0  0  0
    3.2667   -1.8625    0.0000 C   0  0  0  0  0  0  0  0  0  0  0  0
    2.5542   -1.4500    0.0000 C   0  0  0  0  0  0  0  0  0  0  0  0
    3.2667   -0.2042    0.0000 N   0  0  0  0  0  0  0  0  0  0  0  0
    4.9167   -4.0167    0.0000 C   0  0  0  0  0  0  0  0  0  0  0  0
    5.3542   -3.7667    0.0000 C   0  0  0  0  0  0  0  0  0  0  0  0
    2.5542   -0.6250    0.0000 C   0  0  0  0  0  0  0  0  0  0  0  0
    4.4750   -3.7667    0.0000 C   0  0  0  0  0  0  0  0  0  0  0  0
    5.7917   -4.0167    0.0000 C   0  0  0  0  0  0  0  0  0  0  0  0
    4.7042   -1.8625    0.0000 C   0  0  0  0  0  0  0  0  0  0  0  0
    8.2542   -3.1042    0.0000 C   0  0  0  0  0  0  0  0  0  0  0  0
    6.1292   -1.8667    0.0000 N   0  0  0  0  0  0  0  0  0  0  0  0
    4.7042   -0.2125    0.0000 O   0  0  0  0  0  0  0  0  0  0  0  0
    3.2667   -2.6875    0.0000 O   0  0  0  0  0  0  0  0  0  0  0  0
    8.9667   -2.6917    0.0000 C   0  0  0  0  0  0  0  0  0  0  0  0
    7.5417   -2.6875    0.0000 C   0  0  0  0  0  0  0  0  0  0  0  0
    4.0292   -4.0167    0.0000 O   0  0  0  0  0  0  0  0  0  0  0  0
    5.7917   -4.5375    0.0000 O   0  0  0  0  0  0  0  0  0  0  0  0
    8.2542   -3.9292    0.0000 O   0  0  0  0  0  0  0  0  0  0  0  0
    5.4167   -1.4542    0.0000 C   0  0  0  0  0  0  0  0  0  0  0  0
    9.6792   -3.1125    0.0000 C   0  0  0  0  0  0  0  0  0  0  0  0
    8.9667   -1.8750    0.0000 C   0  0  0  0  0  0  0  0  0  0  0  0
    5.3542   -3.2625    0.0000 O   0  0  0  0  0  0  0  0  0  0  0  0
    4.9167   -4.5375    0.0000 O   0  0  0  0  0  0  0  0  0  0  0  0
    7.5417   -1.8667    0.0000 C   0  0  0  0  0  0  0  0  0  0  0  0
    6.8292   -3.1000    0.0000 C   0  0  0  0  0  0  0  0  0  0  0  0
    6.8417   -1.4625    0.0000 C   0  0  0  0  0  0  0  0  0  0  0  0
    6.1167   -2.6875    0.0000 C   0  0  0  0  0  0  0  0  0  0  0  0
    6.2417   -3.7667    0.0000 O   0  0  0  0  0  0  0  0  0  0  0  0
    4.4750   -3.2625    0.0000 O   0  0  0  0  0  0  0  0  0  0  0  0
   10.4042   -1.8750    0.0000 C   0  0  0  0  0  0  0  0  0  0  0  0
    1.8417   -1.8625    0.0000 C   0  0  0  0  0  0  0  0  0  0  0  0
    9.6792   -1.4625    0.0000 C   0  0  0  0  0  0  0  0  0  0  0  0
   10.3917   -2.7042    0.0000 C   0  0  0  0  0  0  0  0  0  0  0  0
   11.1167   -1.4667    0.0000 F   0  0  0  0  0  0  0  0  0  0  0  0
    1.8417   -0.2125    0.0000 C   0  0  0  0  0  0  0  0  0  0  0  0
    1.1292   -1.4500    0.0000 C   0  0  0  0  0  0  0  0  0  0  0  0
    1.1292   -0.6250    0.0000 C   0  0  0  0  0  0  0  0  0  0  0  0
  2  1  1  0
  3  1  1  0
  4  3  1  0
  5  2  1  0
  7  6  1  0
  8  4  2  0
  9  6  1  0
 10  7  1  0
 11  1  1  0
 12 17  1  0
 13 21  1  0
 14  2  2  0
 15  3  2  0
 16 12  1  0
 17 27  1  0
 18  9  2  0
 19 10  2  0
 20 12  2  0
 21 11  1  0
 22 16  2  0
 23 16  1  0
  7 24  1  1
  6 25  1  1
 26 28  1  0
 27 29  1  0
 28 13  1  0
 29 13  1  0
 30 10  1  0
 31  9  1  0
 32 34  1  0
 33  4  1  0
 34 23  2  0
 35 22  1  0
 36 32  1  0
 37  8  1  0
 38 33  2  0
 39 37  2  0
  5  8  1  0
 26 17  1  0
 38 39  1  0
 35 32  2  0
M  END
>  <ID>  (2490) 


>  <MOLENAME>  (2490) 
KETANSERIN TARTRATE

>  <therap>  (2490) 
5HT2/5HT1C seritonin antagonist

>  <ref>  (2490) 
J Pharmacol Exp Therap 218:217 (1981); Drug Dev Res 6:263 (1985)

>  <cas#>  (2490) 
83846-83-7, 74050-98-9(base)

>  <source>  (2490) 
synthetic; R41468

>  <status>  (2490) 
USAN, INN, BAN

>  <tradename>  (2490) 
nan

>  <SMILES>  (2490) 
O=C(c1ccc(F)cc1)C1CCN(CCn2c(=O)[nH]c3c(cccc3)c2=O)CC1

>  <standardized_failed>  (2490) 
False

$$$$

     RDKit          2D

 34 34  0  0  0  0  0  0  0  0999 V2000
    4.7875    0.0833    0.0000 C   0  0  0  0  0  0  0  0  0  0  0  0
    3.4125    0.0833    0.0000 C   0  0  0  0  0  0  0  0  0  0  0  0
    4.1000   -0.2792    0.0000 C   0  0  0  0  0  0  0  0  0  0  0  0
    3.4125    0.7833    0.0000 C   0  0  0  0  0  0  0  0  0  0  0  0
    4.1000    1.1375    0.0000 N   0  0  0  0  0  0  0  0  0  0  0  0
    2.7167   -0.2792    0.0000 C   0  0  0  0  0  0  0  0  0  0  0  0
    5.4792   -0.2792    0.0000 C   0  0  0  0  0  0  0  0  0  0  0  0
    4.7875    0.7833    0.0000 C   0  0  0  0  0  0  0  0  0  0  0  0
    2.7042    1.1375    0.0000 C   0  0  0  0  0  0  0  0  0  0  0  0
    2.0292    0.0833    0.0000 C   0  0  0  0  0  0  0  0  0  0  0  0
    2.0250    0.7833    0.0000 C   0  0  0  0  0  0  0  0  0  0  0  0
    5.4792   -0.9917    0.0000 O   0  0  0  0  0  0  0  0  0  0  0  0
    4.1000   -0.9917    0.0000 O   0  0  0  0  0  0  0  0  0  0  0  0
    6.1792    0.0833    0.0000 O   0  0  0  0  0  0  0  0  0  0  0  0
    1.3292   -0.2792    0.0000 O   0  0  0  0  0  0  0  0  0  0  0  0
    1.3167    1.1375    0.0000 O   0  0  0  0  0  0  0  0  0  0  0  0
    3.5667   -1.4417    0.0000 N   0  0  0  0  0  0  0  0  0  0  0  0
    2.4208   -0.8167    0.0000 O   0  0  0  0  0  0  0  0  0  0  0  0
    2.9917   -1.7542    0.0000 C   0  0  0  0  0  0  0  0  0  0  0  0
    2.4208   -1.4417    0.0000 C   0  0  0  0  0  0  0  0  0  0  0  0
    6.8750   -0.2792    0.0000 C   0  0  0  0  0  0  0  0  0  0  0  0
    1.3167    1.8500    0.0000 C   0  0  0  0  0  0  0  0  0  0  0  0
    0.6375    0.0833    0.0000 C   0  0  0  0  0  0  0  0  0  0  0  0
   -0.0583   -0.2792    0.0000 C   0  0  0  0  0  0  0  0  0  0  0  0
   -4.9208    0.0833    0.0000 C   0  0  0  0  0  0  0  0  0  0  0  0
   -4.2208   -0.2792    0.0000 C   0  0  0  0  0  0  0  0  0  0  0  0
   -3.5250    0.0833    0.0000 C   0  0  0  0  0  0  0  0  0  0  0  0
   -2.8333   -0.2792    0.0000 C   0  0  0  0  0  0  0  0  0  0  0  0
   -2.1458    0.0833    0.0000 C   0  0  0  0  0  0  0  0  0  0  0  0
   -1.4458   -0.2792    0.0000 C   0  0  0  0  0  0  0  0  0  0  0  0
   -0.7500    0.0833    0.0000 C   0  0  0  0  0  0  0  0  0  0  0  0
    0.6167    2.2042    0.0000 C   0  0  0  0  0  0  0  0  0  0  0  0
    7.5667    0.0833    0.0000 C   0  0  0  0  0  0  0  0  0  0  0  0
   -5.6125   -0.2792    0.0000 C   0  0  0  0  0  0  0  0  0  0  0  0
  2  3  1  0
  3  1  2  0
  4  2  2  0
  5  8  2  0
  6  2  1  0
  7  1  1  0
  8  1  1  0
  9  4  1  0
 10  6  2  0
 11  9  2  0
 12  7  2  0
 13  3  1  0
 14  7  1  0
 15 10  1  0
 16 11  1  0
 18 20  1  0
 19 17  1  0
 20 19  1  0
 21 14  1  0
 22 16  1  0
 23 15  1  0
 24 23  1  0
 25 26  1  0
 26 27  1  0
 27 28  1  0
 28 29  1  0
 29 30  1  0
 30 31  1  0
 31 24  1  0
 32 22  1  0
 33 21  1  0
 34 25  1  0
  5  4  1  0
 11 10  1  0
M  END
>  <ID>  (2491) 


>  <MOLENAME>  (2491) 
DECOQUINATE [5mM]

>  <therap>  (2491) 
coccidiostat

>  <ref>  (2491) 
Biochim. Biophys. Acta, Bioenerg. (1975), 396(2), 210-19; Br. Vet. J. (1968), 124(5), 209-18; Chem. Ind. (1968), (2), 56-7

>  <cas#>  (2491) 
18507-89-6

>  <source>  (2491) 
synthetic; M&B-15497, HC-1528; ethanolamine salt

>  <status>  (2491) 
USP, INN, BAN

>  <tradename>  (2491) 
nan

>  <SMILES>  (2491) 
CCCCCCCCCCOc1cc2c(cc1OCC)ncc(C(=O)OCC)c2O

>  <standardized_failed>  (2491) 
False

$$$$

     RDKit          2D

 28 28  0  0  0  0  0  0  0  0999 V2000
    3.6917   -1.4375    0.0000 S   0  0  0  0  0  0  0  0  0  0  0  0
    7.3292   -0.3500    0.0000 N   0  0  0  0  0  0  0  0  0  0  0  0
    6.5417   -1.4375    0.0000 C   0  0  0  0  0  0  0  0  0  0  0  0
    7.3292   -1.6875    0.0000 C   0  0  0  0  0  0  0  0  0  0  0  0
    7.8167   -1.0250    0.0000 C   0  0  0  0  0  0  0  0  0  0  0  0
    6.5417   -0.6125    0.0000 C   0  0  0  0  0  0  0  0  0  0  0  0
    4.1417   -0.8250    0.0000 O   0  0  0  0  0  0  0  0  0  0  0  0
    3.2042   -0.8000    0.0000 O   0  0  0  0  0  0  0  0  0  0  0  0
   10.2542   -1.8042    0.0000 C   0  0  0  0  0  0  0  0  0  0  0  0
   11.4250   -0.4542    0.0000 C   0  0  0  0  0  0  0  0  0  0  0  0
    4.4042   -1.8500    0.0000 C   0  0  0  0  0  0  0  0  0  0  0  0
    5.8292   -1.8500    0.0000 C   0  0  0  0  0  0  0  0  0  0  0  0
    2.9667   -1.8500    0.0000 N   0  0  0  0  0  0  0  0  0  0  0  0
    5.1167   -1.4375    0.0000 C   0  0  0  0  0  0  0  0  0  0  0  0
    7.5792   -2.4750    0.0000 C   0  0  0  0  0  0  0  0  0  0  0  0
    9.6667   -1.4667    0.0000 O   0  0  0  0  0  0  0  0  0  0  0  0
   11.4250    0.2208    0.0000 O   0  0  0  0  0  0  0  0  0  0  0  0
    5.8292   -0.2000    0.0000 C   0  0  0  0  0  0  0  0  0  0  0  0
    8.6417   -3.4292    0.0000 N   0  0  0  0  0  0  0  0  0  0  0  0
   10.8417   -1.4667    0.0000 C   0  0  0  0  0  0  0  0  0  0  0  0
   10.8417   -0.7917    0.0000 C   0  0  0  0  0  0  0  0  0  0  0  0
    8.3917   -2.6500    0.0000 C   0  0  0  0  0  0  0  0  0  0  0  0
    5.1167   -0.6125    0.0000 C   0  0  0  0  0  0  0  0  0  0  0  0
   12.0125   -0.7917    0.0000 O   0  0  0  0  0  0  0  0  0  0  0  0
   10.2542   -2.4792    0.0000 O   0  0  0  0  0  0  0  0  0  0  0  0
    2.7917   -2.6500    0.0000 C   0  0  0  0  0  0  0  0  0  0  0  0
    9.4542   -3.6000    0.0000 C   0  0  0  0  0  0  0  0  0  0  0  0
    8.0917   -4.0417    0.0000 C   0  0  0  0  0  0  0  0  0  0  0  0
  2  6  1  0
  3 12  2  0
  4  3  1  0
  5  4  2  0
  6 18  2  0
  7  1  2  0
  8  1  2  0
 10 21  1  0
 11  1  1  0
 12 14  1  0
 13  1  1  0
 14 11  1  0
 15  4  1  0
 16  9  2  0
 17 10  2  0
 18 23  1  0
 19 22  1  0
 20  9  1  0
 21 20  1  0
 22 15  1  0
 23 14  2  0
 24 10  1  0
 25  9  1  0
 26 13  1  0
 27 19  1  0
 28 19  1  0
  3  6  1  0
  5  2  1  0
M  END
>  <ID>  (2492) 


>  <MOLENAME>  (2492) 
SUMATRIPTAN SUCCINATE

>  <therap>  (2492) 
 5HT agonist

>  <ref>  (2492) 
Lancet 1:1309 (1988); Headache 30 Suppl 2:554 (1990); N Engl J Med 325:316 (1991)

>  <cas#>  (2492) 
103628-48-4

>  <source>  (2492) 
synthetic; GR-43175

>  <status>  (2492) 
USAN, INN, BAN

>  <tradename>  (2492) 
IMITREX

>  <SMILES>  (2492) 
CNS(=O)(=O)Cc1ccc2[nH]cc(CCN(C)C)c2c1

>  <standardized_failed>  (2492) 
False

$$$$

     RDKit          2D

 22 22  0  0  0  0  0  0  0  0999 V2000
    5.6792   -2.1125    0.0000 S   0  0  0  0  0  0  0  0  0  0  0  0
    5.6875   -3.7667    0.0000 N   0  0  0  0  0  0  0  0  0  0  0  0
    4.9667   -2.5292    0.0000 C   0  0  0  0  0  0  0  0  0  0  0  0
    6.3917   -2.5167    0.0000 C   0  0  0  0  0  0  0  0  0  0  0  0
    4.2542   -2.1167    0.0000 C   0  0  0  0  0  0  0  0  0  0  0  0
    7.1042   -2.1042    0.0000 C   0  0  0  0  0  0  0  0  0  0  0  0
    6.4000   -3.3500    0.0000 C   0  0  0  0  0  0  0  0  0  0  0  0
    4.9667   -3.3542    0.0000 C   0  0  0  0  0  0  0  0  0  0  0  0
    7.8250   -2.5042    0.0000 C   0  0  0  0  0  0  0  0  0  0  0  0
    3.5417   -2.5292    0.0000 C   0  0  0  0  0  0  0  0  0  0  0  0
    2.8292   -2.1167    0.0000 N   0  0  0  0  0  0  0  0  0  0  0  0
    8.5375   -2.0875    0.0000 N   0  0  0  0  0  0  0  0  0  0  0  0
    3.5417   -3.3542    0.0000 C   0  0  0  0  0  0  0  0  0  0  0  0
    7.8292   -3.3417    0.0000 C   0  0  0  0  0  0  0  0  0  0  0  0
    6.3167   -1.0917    0.0000 Cl  0  0  0  0  0  0  0  0  0  0  0  0
    7.1167   -3.7542    0.0000 C   0  0  0  0  0  0  0  0  0  0  0  0
    4.2542   -3.7667    0.0000 C   0  0  0  0  0  0  0  0  0  0  0  0
    9.3042   -3.8375    0.0000 O   0  0  0  0  0  0  0  0  0  0  0  0
    2.1125   -2.5292    0.0000 C   0  0  0  0  0  0  0  0  0  0  0  0
    2.8292   -1.2917    0.0000 C   0  0  0  0  0  0  0  0  0  0  0  0
    9.2542   -2.4917    0.0000 C   0  0  0  0  0  0  0  0  0  0  0  0
    8.5292   -1.2625    0.0000 C   0  0  0  0  0  0  0  0  0  0  0  0
  2  7  1  0
  3  1  2  0
  4  1  1  0
  5  3  1  0
  6  4  2  0
  7  4  1  0
  8  3  1  0
  9  6  1  0
 10  5  2  0
 11 10  1  0
 12  9  1  0
 13 17  2  0
 14 16  1  0
 16  7  2  0
 17  8  1  0
 19 11  1  0
 20 11  1  0
 21 12  1  0
 22 12  1  0
  8  2  2  0
  9 14  2  0
 10 13  1  0
M  CHG  2   1   1  15  -1
M  END
>  <ID>  (2493) 


>  <MOLENAME>  (2493) 
METHYLENE BLUE

>  <therap>  (2493) 
antimethemoglobinemic, cyanide antidote

>  <ref>  (2493) 
Eur. J. Pharm. Biopharm. (2008), 69(2), 582-587; Appl. Environ. Microbiol. (2003), 69(11), 6393-6398; Phys. Chem. Chem. Phys. (2002), 4(11), 2320-2328

>  <cas#>  (2493) 
7220-79-3

>  <source>  (2493) 
synthetic

>  <status>  (2493) 
USP, INN, BAN

>  <tradename>  (2493) 
nan

>  <SMILES>  (2493) 
CN(C)c1cc2[s+]c3cc(N(C)C)ccc3nc2cc1

>  <standardized_failed>  (2493) 
False

$$$$

     RDKit          2D

 35 30  0  0  0  0  0  0  0  0999 V2000
    4.1500    2.1583    0.0000 C   0  0  0  0  0  0  0  0  0  0  0  0
    4.1875   -1.6042    0.0000 C   0  0  0  0  0  0  0  0  0  0  0  0
    4.1500    1.3333    0.0000 O   0  0  0  0  0  0  0  0  0  0  0  0
    4.1875   -0.7792    0.0000 O   0  0  0  0  0  0  0  0  0  0  0  0
    4.8625    2.5792    0.0000 O   0  0  0  0  0  0  0  0  0  0  0  0
    4.9000   -2.0167    0.0000 O   0  0  0  0  0  0  0  0  0  0  0  0
   -2.2625    2.5500    0.0000 C   0  0  0  0  0  0  0  0  0  0  0  0
   -2.2250   -2.0000    0.0000 C   0  0  0  0  0  0  0  0  0  0  0  0
   -2.9750    2.1417    0.0000 C   0  0  0  0  0  0  0  0  0  0  0  0
   -2.9375   -1.5875    0.0000 C   0  0  0  0  0  0  0  0  0  0  0  0
    5.5792   -0.8667    0.0000 N   0  0  0  0  0  0  0  0  0  0  0  0
    5.5042    1.3750    0.0000 N   0  0  0  0  0  0  0  0  0  0  0  0
    4.0917    0.2250    0.0000 Zn  0  0  0  0  0 15  0  0  0  0  0  0
    6.7250   -0.2417    0.0000 O   0  0  0  0  0  0  0  0  0  0  0  0
    6.6500    1.9958    0.0000 O   0  0  0  0  0  0  0  0  0  0  0  0
    3.4750   -2.0125    0.0000 C   0  0  0  0  0  0  0  0  0  0  0  0
    3.4375    2.5625    0.0000 C   0  0  0  0  0  0  0  0  0  0  0  0
   -1.5125   -1.5875    0.0000 C   0  0  0  0  0  0  0  0  0  0  0  0
   -1.5500    2.1417    0.0000 C   0  0  0  0  0  0  0  0  0  0  0  0
    6.1542   -1.1792    0.0000 C   0  0  0  0  0  0  0  0  0  0  0  0
    6.0792    1.0625    0.0000 C   0  0  0  0  0  0  0  0  0  0  0  0
    6.7250   -0.8667    0.0000 C   0  0  0  0  0  0  0  0  0  0  0  0
    6.6500    1.3750    0.0000 C   0  0  0  0  0  0  0  0  0  0  0  0
    2.7625   -1.6000    0.0000 C   0  0  0  0  0  0  0  0  0  0  0  0
    2.7250    2.1500    0.0000 C   0  0  0  0  0  0  0  0  0  0  0  0
   -0.8000   -2.0000    0.0000 C   0  0  0  0  0  0  0  0  0  0  0  0
   -0.8375    2.5500    0.0000 C   0  0  0  0  0  0  0  0  0  0  0  0
    2.0083    2.5625    0.0000 C   0  0  0  0  0  0  0  0  0  0  0  0
   -0.1250    2.1458    0.0000 C   0  0  0  0  0  0  0  0  0  0  0  0
    0.5875    2.5583    0.0000 C   0  0  0  0  0  0  0  0  0  0  0  0
    1.3375   -1.6000    0.0000 C   0  0  0  0  0  0  0  0  0  0  0  0
    2.0500   -2.0125    0.0000 C   0  0  0  0  0  0  0  0  0  0  0  0
   -0.0875   -1.5917    0.0000 C   0  0  0  0  0  0  0  0  0  0  0  0
    0.6250   -2.0042    0.0000 C   0  0  0  0  0  0  0  0  0  0  0  0
    1.3000    2.1500    0.0000 C   0  0  0  0  0  0  0  0  0  0  0  0
  3  1  1  0
  4  2  1  0
  5  1  2  0
  6  2  2  0
  7 19  1  0
  8 18  1  0
  9  7  2  0
 10  8  2  0
 14 22  1  0
 15 23  1  0
 16  2  1  0
 17  1  1  0
 18 26  1  0
 19 27  1  0
 20 11  1  0
 21 12  1  0
 22 20  1  0
 23 21  1  0
 24 16  1  0
 25 17  1  0
 26 33  1  0
 27 29  1  0
 28 25  1  0
 29 30  1  0
 30 35  1  0
 31 32  1  0
 32 24  1  0
 33 34  1  0
 34 31  1  0
 35 28  1  0
M  CHG  3   3  -1   4  -1  13   2
M  END
>  <ID>  (2494) 


>  <MOLENAME>  (2494) 
ZINC UNDECYLENATE [4mM]

>  <therap>  (2494) 
antifungal

>  <ref>  (2494) 
Arch Dermatol 119:351 (1983)

>  <cas#>  (2494) 
557-08-4

>  <source>  (2494) 
synthetic; ethanolamine salt

>  <status>  (2494) 
USP, JAN

>  <tradename>  (2494) 
MYCODECYL

>  <SMILES>  (2494) 
C=CCCCCCCCCC(=O)[O-].C=CCCCCCCCCC(=O)[O-].NCCO.NCCO.[Zn+2]

>  <standardized_failed>  (2494) 
False

$$$$

     RDKit          2D

 33 34  0  0  0  0  0  0  0  0999 V2000
    1.8292   -1.6417    0.0000 C   0  0  0  0  0  0  0  0  0  0  0  0
    1.8292   -0.8042    0.0000 C   0  0  0  0  0  0  0  0  0  0  0  0
    1.1042   -2.0542    0.0000 C   0  0  0  0  0  0  0  0  0  0  0  0
    1.1125   -0.3875    0.0000 C   0  0  0  0  0  0  0  0  0  0  0  0
    0.3917   -0.8042    0.0000 C   0  0  0  0  0  0  0  0  0  0  0  0
    0.3917   -1.6417    0.0000 C   0  0  0  0  0  0  0  0  0  0  0  0
    2.5417   -2.0542    0.0000 C   0  0  0  0  0  0  0  0  0  0  0  0
    3.2542   -1.6417    0.0000 C   0  0  0  0  0  0  0  0  0  0  0  0
    1.1125    0.4375    0.0000 O   0  0  0  0  0  0  0  0  0  0  0  0
    1.1042   -2.8792    0.0000 O   0  0  0  0  0  0  0  0  0  0  0  0
    3.9667   -2.0542    0.0000 C   0  0  0  0  0  0  0  0  0  0  0  0
    2.5500   -0.4000    0.0000 C   0  0  0  0  0  0  0  0  0  0  0  0
   -0.3208   -2.0500    0.0000 C   0  0  0  0  0  0  0  0  0  0  0  0
   -0.3208   -0.3917    0.0000 C   0  0  0  0  0  0  0  0  0  0  0  0
    5.3917   -2.0625    0.0000 C   0  0  0  0  0  0  0  0  0  0  0  0
    8.2417   -2.0667    0.0000 C   0  0  0  0  0  0  0  0  0  0  0  0
   11.0917   -2.0792    0.0000 C   0  0  0  0  0  0  0  0  0  0  0  0
    4.6792   -1.6500    0.0000 C   0  0  0  0  0  0  0  0  0  0  0  0
    3.9667   -2.8792    0.0000 C   0  0  0  0  0  0  0  0  0  0  0  0
   11.8042   -1.6667    0.0000 C   0  0  0  0  0  0  0  0  0  0  0  0
   10.3792   -1.6667    0.0000 C   0  0  0  0  0  0  0  0  0  0  0  0
    7.5292   -1.6542    0.0000 C   0  0  0  0  0  0  0  0  0  0  0  0
    6.1042   -1.6542    0.0000 C   0  0  0  0  0  0  0  0  0  0  0  0
    8.9542   -1.6625    0.0000 C   0  0  0  0  0  0  0  0  0  0  0  0
    6.8167   -2.0667    0.0000 C   0  0  0  0  0  0  0  0  0  0  0  0
    9.6667   -2.0750    0.0000 C   0  0  0  0  0  0  0  0  0  0  0  0
   12.5167   -2.0792    0.0000 C   0  0  0  0  0  0  0  0  0  0  0  0
   -1.0333   -1.6375    0.0000 C   0  0  0  0  0  0  0  0  0  0  0  0
   -1.0333   -0.8125    0.0000 C   0  0  0  0  0  0  0  0  0  0  0  0
   13.2292   -1.6667    0.0000 C   0  0  0  0  0  0  0  0  0  0  0  0
   12.5167   -2.9042    0.0000 C   0  0  0  0  0  0  0  0  0  0  0  0
    9.6667   -2.9000    0.0000 C   0  0  0  0  0  0  0  0  0  0  0  0
    6.8167   -2.8917    0.0000 C   0  0  0  0  0  0  0  0  0  0  0  0
  2  1  2  0
  3  1  1  0
  4  2  1  0
  5  6  2  0
  6  3  1  0
  7  1  1  0
  8  7  1  0
  9  4  2  0
 10  3  2  0
 11  8  2  0
 12  2  1  0
 13  6  1  0
 14  5  1  0
 15 18  1  0
 16 22  1  0
 17 21  1  0
 18 11  1  0
 19 11  1  0
 20 17  1  0
 21 26  1  0
 22 25  1  0
 23 15  1  0
 24 16  1  0
 25 23  1  0
 26 24  1  0
 27 20  1  0
 28 13  2  0
 29 28  1  0
 30 27  1  0
 31 27  1  0
 26 32  1  1
 25 33  1  1
  4  5  1  0
 29 14  2  0
M  END
>  <ID>  (2495) 


>  <MOLENAME>  (2495) 
PHYTONADIONE [5mM]

>  <therap>  (2495) 
vitamin K1

>  <ref>  (2495) 
Arch Dermatol 114:1790 (1978); Arch Inter Med 163:2469 (2003)

>  <cas#>  (2495) 
84-80-0

>  <source>  (2495) 
semisynthetic

>  <status>  (2495) 
USP, INN, BAN

>  <tradename>  (2495) 
AQUAMEPHYTON

>  <SMILES>  (2495) 
CC1=C(C/C=C(\C)CCC[C@H](C)CCC[C@H](C)CCCC(C)C)C(=O)c2c(cccc2)C1=O

>  <standardized_failed>  (2495) 
False

$$$$

     RDKit          2D

 35 38  0  0  0  0  0  0  0  0999 V2000
    5.1500   -1.1792    0.0000 C   0  0  0  0  0  0  0  0  0  0  0  0
    4.4375   -1.5875    0.0000 C   0  0  0  0  0  0  0  0  0  0  0  0
    4.4375   -2.4167    0.0000 N   0  0  0  0  0  0  0  0  0  0  0  0
    3.7167   -1.1667    0.0000 C   0  0  0  0  0  0  0  0  0  0  0  0
    5.8625   -1.5917    0.0000 O   0  0  0  0  0  0  0  0  0  0  0  0
    3.0000   -1.5875    0.0000 C   0  0  0  0  0  0  0  0  0  0  0  0
    6.7000   -1.1167    0.0000 C   0  0  0  0  0  0  0  0  0  0  0  0
    8.4167   -1.3750    0.0000 N   0  0  0  0  0  0  0  0  0  0  0  0
    7.4000   -1.5250    0.0000 C   0  0  0  0  0  0  0  0  0  0  0  0
    3.7125   -2.8292    0.0000 C   0  0  0  0  0  0  0  0  0  0  0  0
    9.9292   -1.7917    0.0000 C   0  0  0  0  0  0  0  0  0  0  0  0
    9.4542   -3.1417    0.0000 C   0  0  0  0  0  0  0  0  0  0  0  0
    2.9917   -2.4167    0.0000 C   0  0  0  0  0  0  0  0  0  0  0  0
    5.1417   -0.3542    0.0000 O   0  0  0  0  0  0  0  0  0  0  0  0
    6.6917   -0.2917    0.0000 C   0  0  0  0  0  0  0  0  0  0  0  0
    3.7167   -0.3500    0.0000 C   0  0  0  0  0  0  0  0  0  0  0  0
   10.3958   -1.5167    0.0000 O   0  0  0  0  0  0  0  0  0  0  0  0
    8.9792   -3.4167    0.0000 O   0  0  0  0  0  0  0  0  0  0  0  0
    7.8792   -0.0417    0.0000 C   0  0  0  0  0  0  0  0  0  0  0  0
    7.0167   -0.8125    0.0000 C   0  0  0  0  0  0  0  0  0  0  0  0
    8.5917   -0.4542    0.0000 C   0  0  0  0  0  0  0  0  0  0  0  0
    8.0500   -0.5000    0.0000 C   0  0  0  0  0  0  0  0  0  0  0  0
    9.4542   -2.6042    0.0000 C   0  0  0  0  0  0  0  0  0  0  0  0
    9.9292   -2.3292    0.0000 C   0  0  0  0  0  0  0  0  0  0  0  0
    9.4542   -1.5167    0.0000 O   0  0  0  0  0  0  0  0  0  0  0  0
    9.9292   -3.4167    0.0000 O   0  0  0  0  0  0  0  0  0  0  0  0
    2.2792   -1.1750    0.0000 C   0  0  0  0  0  0  0  0  0  0  0  0
    2.2792   -2.8292    0.0000 C   0  0  0  0  0  0  0  0  0  0  0  0
    3.0042    0.0625    0.0000 C   0  0  0  0  0  0  0  0  0  0  0  0
    4.4292    0.0625    0.0000 C   0  0  0  0  0  0  0  0  0  0  0  0
    1.5667   -1.5917    0.0000 C   0  0  0  0  0  0  0  0  0  0  0  0
    1.5667   -2.4167    0.0000 C   0  0  0  0  0  0  0  0  0  0  0  0
    4.4292    0.8875    0.0000 C   0  0  0  0  0  0  0  0  0  0  0  0
    3.0000    0.8833    0.0000 C   0  0  0  0  0  0  0  0  0  0  0  0
    3.7167    1.3000    0.0000 C   0  0  0  0  0  0  0  0  0  0  0  0
  2  1  1  0
  3  2  1  0
  4  2  1  6
  5  1  1  0
  6  4  1  0
  7  5  1  6
  8  9  1  0
  9  7  1  0
 10  3  1  0
 12 23  1  0
 13  6  2  0
 14  1  2  0
 15  7  1  0
  4 16  1  0
 17 11  2  0
 18 12  2  0
 19 15  1  0
 20 15  1  0
 21 19  1  0
 22 20  1  0
 23 24  1  0
 24 11  1  0
 25 11  1  0
 26 12  1  0
 27  6  1  0
 28 13  1  0
 29 16  2  0
 30 16  1  0
 31 27  2  0
 32 28  2  0
 33 30  2  0
 34 29  1  0
 35 33  1  0
 10 13  1  0
  8 22  1  0
  8 21  1  0
 31 32  1  0
 34 35  2  0
M  END
>  <ID>  (2496) 


>  <MOLENAME>  (2496) 
SOLIFENACIN SUCCINATE

>  <therap>  (2496) 
muscarinic M3 antagonist

>  <ref>  (2496) 
Curr Med Res Opin21:71 (2005); Drugs 66:175 (2006)

>  <cas#>  (2496) 
242478-37-1

>  <source>  (2496) 
synthetic; YM-905, YM-67905

>  <status>  (2496) 
USAN, INN

>  <tradename>  (2496) 
VESICARE

>  <SMILES>  (2496) 
O=C(O[C@H]1CN2CCC1CC2)C1NCc2c(cccc2)[C@@H]1c1ccccc1

>  <standardized_failed>  (2496) 
False

$$$$

     RDKit          2D

 32 34  0  0  0  0  0  0  0  0999 V2000
    6.1500   -4.1917    0.0000 C   0  0  0  0  0  0  0  0  0  0  0  0
    5.4375   -3.7792    0.0000 C   0  0  0  0  0  0  0  0  0  0  0  0
    6.1417   -5.0042    0.0000 C   0  0  0  0  0  0  0  0  0  0  0  0
    4.7250   -4.1917    0.0000 N   0  0  0  0  0  0  0  0  0  0  0  0
    6.8625   -3.7792    0.0000 C   0  0  0  0  0  0  0  0  0  0  0  0
    6.8542   -5.4167    0.0000 C   0  0  0  0  0  0  0  0  0  0  0  0
    4.0125   -3.7792    0.0000 C   0  0  0  0  0  0  0  0  0  0  0  0
    7.5667   -4.1875    0.0000 C   0  0  0  0  0  0  0  0  0  0  0  0
    4.0125   -2.9542    0.0000 C   0  0  0  0  0  0  0  0  0  0  0  0
    7.5667   -5.0042    0.0000 C   0  0  0  0  0  0  0  0  0  0  0  0
    2.5875   -2.9667    0.0000 N   0  0  0  0  0  0  0  0  0  0  0  0
    3.3000   -2.5542    0.0000 C   0  0  0  0  0  0  0  0  0  0  0  0
    3.3000   -4.1917    0.0000 C   0  0  0  0  0  0  0  0  0  0  0  0
    5.4375   -2.9542    0.0000 O   0  0  0  0  0  0  0  0  0  0  0  0
    2.5875   -3.7792    0.0000 C   0  0  0  0  0  0  0  0  0  0  0  0
    8.2875   -5.4167    0.0000 N   0  0  0  0  0  0  0  0  0  0  0  0
    8.2875   -3.7792    0.0000 Cl  0  0  0  0  0  0  0  0  0  0  0  0
    5.4292   -5.4167    0.0000 O   0  0  0  0  0  0  0  0  0  0  0  0
   -2.4083   -1.7417    0.0000 C   0  0  0  0  0  0  0  0  0  0  0  0
    4.7250   -2.5417    0.0000 O   0  0  0  0  0  0  0  0  0  0  0  0
   -0.9750   -2.5542    0.0000 C   0  0  0  0  0  0  0  0  0  0  0  0
   -3.1250   -1.3292    0.0000 F   0  0  0  0  0  0  0  0  0  0  0  0
   -1.6958   -1.3167    0.0000 C   0  0  0  0  0  0  0  0  0  0  0  0
   -2.4000   -2.5625    0.0000 C   0  0  0  0  0  0  0  0  0  0  0  0
   -0.9833   -1.7292    0.0000 C   0  0  0  0  0  0  0  0  0  0  0  0
   -1.6875   -2.9667    0.0000 C   0  0  0  0  0  0  0  0  0  0  0  0
    1.8750   -2.5542    0.0000 C   0  0  0  0  0  0  0  0  0  0  0  0
    1.1625   -2.9667    0.0000 C   0  0  0  0  0  0  0  0  0  0  0  0
   -0.2625   -2.9667    0.0000 O   0  0  0  0  0  0  0  0  0  0  0  0
    0.4500   -2.5542    0.0000 C   0  0  0  0  0  0  0  0  0  0  0  0
    4.7167   -5.0042    0.0000 C   0  0  0  0  0  0  0  0  0  0  0  0
    4.7167   -1.7167    0.0000 C   0  0  0  0  0  0  0  0  0  0  0  0
  2  1  1  0
  3  1  2  0
  4  2  1  0
  5  1  1  0
  6  3  1  0
  7  4  1  0
  8  5  2  0
  9  7  1  0
 10  8  1  0
 11 15  1  0
 12  9  1  0
 13  7  1  0
 14  2  2  0
 15 13  1  0
 16 10  1  0
 17  8  1  0
 18  3  1  0
 19 24  2  0
 20  9  1  0
 21 29  1  0
 22 19  1  0
 23 25  2  0
 24 26  1  0
 25 21  1  0
 26 21  2  0
 27 11  1  0
 28 27  1  0
 29 30  1  0
 30 28  1  0
 31 18  1  0
 32 20  1  0
  6 10  2  0
 12 11  1  0
 23 19  1  0
M  END
>  <ID>  (2497) 


>  <MOLENAME>  (2497) 
CISAPRIDE

>  <therap>  (2497) 
peristaltic stimulant

>  <ref>  (2497) 
Neurogastroenterol. Motil. (2008), 20(2), 99-112; Gut (1985), 26(3), 246-51; J. Pharm. Pharmacol. (1984), 36(2), 139-40

>  <cas#>  (2497) 
81098-60-4

>  <source>  (2497) 
synthetic; R-51619

>  <status>  (2497) 
USAN, INN, BAN, JAN

>  <tradename>  (2497) 
nan

>  <SMILES>  (2497) 
COc1c(C(=O)NC2CCN(CCCOc3ccc(F)cc3)CC2OC)cc(Cl)c(N)c1

>  <standardized_failed>  (2497) 
False

$$$$

     RDKit          2D

 32 36  0  0  0  0  0  0  0  0999 V2000
    2.2792   -3.9542    0.0000 C   0  0  0  0  0  0  0  0  0  0  0  0
    3.7167   -3.1417    0.0000 C   0  0  0  0  0  0  0  0  0  0  0  0
    1.5667   -4.3667    0.0000 C   0  0  0  0  0  0  0  0  0  0  0  0
    2.9917   -4.3750    0.0000 C   0  0  0  0  0  0  0  0  0  0  0  0
    2.2875   -3.1292    0.0000 C   0  0  0  0  0  0  0  0  0  0  0  0
    3.7125   -3.9667    0.0000 C   0  0  0  0  0  0  0  0  0  0  0  0
    1.5667   -5.1917    0.0000 C   0  0  0  0  0  0  0  0  0  0  0  0
    3.0125   -2.7250    0.0000 C   0  0  0  0  0  0  0  0  0  0  0  0
    4.5042   -2.9000    0.0000 C   0  0  0  0  0  0  0  0  0  0  0  0
    0.8542   -5.6000    0.0000 C   0  0  0  0  0  0  0  0  0  0  0  0
    5.3292   -2.9000    0.0000 C   0  0  0  0  0  0  0  0  0  0  0  0
    2.9917   -5.1917    0.0000 C   0  0  0  0  0  0  0  0  0  0  0  0
    0.8542   -3.9500    0.0000 C   0  0  0  0  0  0  0  0  0  0  0  0
    4.4917   -4.2292    0.0000 C   0  0  0  0  0  0  0  0  0  0  0  0
    6.1542   -2.9000    0.0000 C   0  0  0  0  0  0  0  0  0  0  0  0
    1.5792   -2.7125    0.0000 C   0  0  0  0  0  0  0  0  0  0  0  0
    2.2792   -5.6042    0.0000 C   0  0  0  0  0  0  0  0  0  0  0  0
    0.1500   -5.1917    0.0000 C   0  0  0  0  0  0  0  0  0  0  0  0
    0.1625   -1.8667    0.0000 C   0  0  0  0  0  0  0  0  0  0  0  0
    4.9792   -3.5667    0.0000 C   0  0  0  0  0  0  0  0  0  0  0  0
   -0.5458   -1.4542    0.0000 N   0  0  0  0  0  0  0  0  0  0  0  0
    0.8667   -3.1167    0.0000 C   0  0  0  0  0  0  0  0  0  0  0  0
    1.5917   -1.8875    0.0000 C   0  0  0  0  0  0  0  0  0  0  0  0
    0.8792   -1.4667    0.0000 C   0  0  0  0  0  0  0  0  0  0  0  0
    0.1542   -2.7000    0.0000 C   0  0  0  0  0  0  0  0  0  0  0  0
   -0.5708   -5.6042    0.0000 O   0  0  0  0  0  0  0  0  0  0  0  0
    0.1500   -4.3667    0.0000 C   0  0  0  0  0  0  0  0  0  0  0  0
    4.7667   -2.1167    0.0000 O   0  0  0  0  0  0  0  0  0  0  0  0
    3.7167   -2.3167    0.0000 C   0  0  0  0  0  0  0  0  0  0  0  0
    6.9792   -2.9000    0.0000 C   0  0  0  0  0  0  0  0  0  0  0  0
   -0.5458   -0.6292    0.0000 C   0  0  0  0  0  0  0  0  0  0  0  0
   -1.2708   -1.8542    0.0000 C   0  0  0  0  0  0  0  0  0  0  0  0
  2  8  1  0
  3  1  2  0
  4  1  1  0
  5  1  1  0
  6  4  1  0
  7  3  1  0
  5  8  1  1
  9  2  1  0
 10  7  2  0
  9 11  1  0
 12  4  1  0
 13  3  1  0
 14  6  1  0
 15 11  3  0
  5 16  1  0
 17 12  1  0
 18 27  1  0
 19 24  2  0
 20 14  1  0
 21 19  1  0
 22 16  1  0
 23 16  2  0
 24 23  1  0
 25 22  2  0
 26 18  2  0
 27 13  1  0
  9 28  1  1
  2 29  1  1
 30 15  1  0
 31 21  1  0
 32 21  1  0
  2  6  1  0
  7 17  1  0
 25 19  1  0
 20  9  1  0
 10 18  1  0
M  END
>  <ID>  (2498) 


>  <MOLENAME>  (2498) 
MIFEPRISTONE

>  <therap>  (2498) 
progesterone antagonist, abortion inducer

>  <ref>  (2498) 
Drugs (1988), 35(3), 187-91; Contraception (1987), 36 Suppl, 1-5; FEBS Lett. (1987), 217(2), 221-6

>  <cas#>  (2498) 
84371-65-3

>  <source>  (2498) 
synthetic; RU-38486, RU-486

>  <status>  (2498) 
USAN, INN, BAN

>  <tradename>  (2498) 
MIFEPREX

>  <SMILES>  (2498) 
CC#C[C@]1(O)CCC2C3CCC4=CC(=O)CCC4=C3[C@@H](c3ccc(N(C)C)cc3)C[C@@]21C

>  <standardized_failed>  (2498) 
False

$$$$

     RDKit          2D

 16 16  0  0  0  0  0  0  0  0999 V2000
    2.7500   -5.3375    0.0000 P   0  0  0  0  0  0  0  0  0  0  0  0
    1.5125   -4.6167    0.0000 C   0  0  0  0  0  0  0  0  0  0  0  0
    1.1000   -5.3292    0.0000 C   0  0  0  0  0  0  0  0  0  0  0  0
    2.3375   -4.6167    0.0000 O   0  0  0  0  0  0  0  0  0  0  0  0
    0.2750   -3.9125    0.0000 C   0  0  0  0  0  0  0  0  0  0  0  0
    1.1000   -3.9042    0.0000 C   0  0  0  0  0  0  0  0  0  0  0  0
    0.2750   -5.3292    0.0000 C   0  0  0  0  0  0  0  0  0  0  0  0
   -0.1333   -4.6250    0.0000 C   0  0  0  0  0  0  0  0  0  0  0  0
    2.0292   -5.7417    0.0000 S   0  0  0  0  0  0  0  0  0  0  0  0
    3.4625   -4.9167    0.0000 O   0  0  0  0  0  0  0  0  0  0  0  0
    3.1542   -6.0500    0.0000 O   0  0  0  0  0  0  0  0  0  0  0  0
    1.5125   -3.1917    0.0000 Cl  0  0  0  0  0  0  0  0  0  0  0  0
   -0.1333   -6.0417    0.0000 Cl  0  0  0  0  0  0  0  0  0  0  0  0
   -0.9583   -4.6250    0.0000 Cl  0  0  0  0  0  0  0  0  0  0  0  0
    4.1792   -5.3250    0.0000 C   0  0  0  0  0  0  0  0  0  0  0  0
    2.7417   -6.7625    0.0000 C   0  0  0  0  0  0  0  0  0  0  0  0
  2  4  1  0
  3  2  2  0
  4  1  1  0
  5  6  2  0
  6  2  1  0
  7  3  1  0
  8  5  1  0
  9  1  2  0
 10  1  1  0
 11  1  1  0
 12  6  1  0
 13  7  1  0
 14  8  1  0
 15 10  1  0
 16 11  1  0
  8  7  2  0
M  END
>  <ID>  (2499) 


>  <MOLENAME>  (2499) 
RONNEL

>  <therap>  (2499) 
insecticide

>  <ref>  (2499) 
nan

>  <cas#>  (2499) 
299-84-3

>  <source>  (2499) 
synthetic

>  <status>  (2499) 
USAN, INN

>  <tradename>  (2499) 
nan

>  <SMILES>  (2499) 
COP(=S)(OC)Oc1cc(Cl)c(Cl)cc1Cl

>  <standardized_failed>  (2499) 
False

$$$$

     RDKit          2D

 16 14  0  0  0  0  0  0  0  0999 V2000
    4.8750   -2.1542    0.0000 C   0  0  0  0  0  0  0  0  0  0  0  0
    4.6750   -1.4292    0.0000 C   0  0  0  0  0  0  0  0  0  0  0  0
    5.6000   -2.3417    0.0000 C   0  0  0  0  0  0  0  0  0  0  0  0
    6.5167   -3.2542    0.0000 N   0  0  0  0  0  0  0  0  0  0  0  0
    6.9542   -1.1542    0.0000 C   0  0  0  0  0  0  0  0  0  0  0  0
    6.3167   -1.7917    0.0000 O   0  0  0  0  0  0  0  0  0  0  0  0
    9.5875   -2.2417    0.0000 Cl  0  0  0  0  0  0  0  0  0  0  0  0
    3.9500   -1.2417    0.0000 O   0  0  0  0  0  0  0  0  0  0  0  0
    6.9625   -0.3417    0.0000 O   0  0  0  0  0  0  0  0  0  0  0  0
    5.8000   -3.0667    0.0000 C   0  0  0  0  0  0  0  0  0  0  0  0
    5.2000   -0.9042    0.0000 O   0  0  0  0  0  0  0  0  0  0  0  0
    7.4417   -3.4042    0.0000 C   0  0  0  0  0  0  0  0  0  0  0  0
    6.3167   -4.0917    0.0000 C   0  0  0  0  0  0  0  0  0  0  0  0
    6.7250   -2.4042    0.0000 C   0  0  0  0  0  0  0  0  0  0  0  0
    7.7292   -1.6042    0.0000 C   0  0  0  0  0  0  0  0  0  0  0  0
    8.5125   -1.1542    0.0000 C   0  0  0  0  0  0  0  0  0  0  0  0
  2  1  1  0
  3  1  1  1
  4 10  1  0
  5  6  1  0
  3  6  1  0
  8  2  2  0
  9  5  2  0
 10  3  1  0
 11  2  1  0
 12  4  1  0
 13  4  1  0
 14  4  1  0
 15  5  1  0
 16 15  1  0
M  CHG  2   4   1   7  -1
M  END
>  <ID>  (2500) 


>  <MOLENAME>  (2500) 
LEVOCARNITINE PROPIONATE HYDROCHLORIDE

>  <therap>  (2500) 
carnitine replenisher in peripheral arterial disease

>  <ref>  (2500) 
Cardiovasc. Drugs Ther. (2009), 23(4), 301-306; Curr. Med. Res. Opin. (2004), 20(9), 1377-1384; Mediators Inflammation (1993), 2(Suppl. 1), S43-S50

>  <cas#>  (2500) 
119793-66-7

>  <source>  (2500) 
synthetic; ST-261

>  <status>  (2500) 
USAN

>  <tradename>  (2500) 
DROMOS

>  <SMILES>  (2500) 
CCC(=O)O[C@H](CC(=O)O)C[N+](C)(C)C

>  <standardized_failed>  (2500) 
False

$$$$

     RDKit          2D

 51 55  0  0  0  0  0  0  0  0999 V2000
    4.9792   -3.0917    0.0000 N   0  0  0  0  0  0  0  0  0  0  0  0
    5.3750   -3.6167    0.0000 C   0  0  0  0  0  0  0  0  0  0  0  0
   -3.8375   -2.8542    0.0000 C   0  0  0  0  0  0  0  0  0  0  0  0
    6.0167   -3.4167    0.0000 N   0  0  0  0  0  0  0  0  0  0  0  0
    6.0167   -2.7792    0.0000 N   0  0  0  0  0  0  0  0  0  0  0  0
    5.3792   -2.5750    0.0000 C   0  0  0  0  0  0  0  0  0  0  0  0
   -3.8375   -3.4917    0.0000 C   0  0  0  0  0  0  0  0  0  0  0  0
   -4.5208   -2.8417    0.0000 C   0  0  0  0  0  0  0  0  0  0  0  0
   -3.1958   -3.0542    0.0000 O   0  0  0  0  0  0  0  0  0  0  0  0
   -4.8458   -2.2875    0.0000 N   0  0  0  0  0  0  0  0  0  0  0  0
   -5.0625   -1.2667    0.0000 N   0  0  0  0  0  0  0  0  0  0  0  0
   -3.8375   -2.2125    0.0000 O   0  0  0  0  0  0  0  0  0  0  0  0
    0.9167   -3.0792    0.0000 N   0  0  0  0  0  0  0  0  0  0  0  0
    2.2750   -3.0875    0.0000 N   0  0  0  0  0  0  0  0  0  0  0  0
   -3.2625   -3.8125    0.0000 C   0  0  0  0  0  0  0  0  0  0  0  0
   -5.5208   -2.2125    0.0000 N   0  0  0  0  0  0  0  0  0  0  0  0
    4.3042   -3.0917    0.0000 C   0  0  0  0  0  0  0  0  0  0  0  0
   -5.6583   -1.5792    0.0000 C   0  0  0  0  0  0  0  0  0  0  0  0
   -4.5708   -1.7042    0.0000 C   0  0  0  0  0  0  0  0  0  0  0  0
   -4.4250   -3.8125    0.0000 C   0  0  0  0  0  0  0  0  0  0  0  0
    5.1667   -4.2292    0.0000 O   0  0  0  0  0  0  0  0  0  0  0  0
   -3.2625   -4.4542    0.0000 C   0  0  0  0  0  0  0  0  0  0  0  0
    2.9542   -3.0917    0.0000 C   0  0  0  0  0  0  0  0  0  0  0  0
    0.2417   -3.0792    0.0000 C   0  0  0  0  0  0  0  0  0  0  0  0
   -2.8000   -2.5292    0.0000 C   0  0  0  0  0  0  0  0  0  0  0  0
    1.9375   -2.5250    0.0000 C   0  0  0  0  0  0  0  0  0  0  0  0
    1.2625   -2.5250    0.0000 C   0  0  0  0  0  0  0  0  0  0  0  0
    1.9292   -3.6417    0.0000 C   0  0  0  0  0  0  0  0  0  0  0  0
    1.2625   -3.6417    0.0000 C   0  0  0  0  0  0  0  0  0  0  0  0
    6.5667   -3.8042    0.0000 C   0  0  0  0  0  0  0  0  0  0  0  0
    3.9667   -2.5375    0.0000 C   0  0  0  0  0  0  0  0  0  0  0  0
    3.9667   -3.6542    0.0000 C   0  0  0  0  0  0  0  0  0  0  0  0
    3.2917   -2.5375    0.0000 C   0  0  0  0  0  0  0  0  0  0  0  0
    3.2875   -3.6417    0.0000 C   0  0  0  0  0  0  0  0  0  0  0  0
   -3.1958   -2.0042    0.0000 C   0  0  0  0  0  0  0  0  0  0  0  0
   -0.0958   -3.6375    0.0000 C   0  0  0  0  0  0  0  0  0  0  0  0
   -0.0958   -2.5250    0.0000 C   0  0  0  0  0  0  0  0  0  0  0  0
   -3.8500   -4.7750    0.0000 C   0  0  0  0  0  0  0  0  0  0  0  0
   -2.6708   -3.4917    0.0000 Cl  0  0  0  0  0  0  0  0  0  0  0  0
   -1.7833   -3.0792    0.0000 O   0  0  0  0  0  0  0  0  0  0  0  0
   -4.4333   -4.4542    0.0000 C   0  0  0  0  0  0  0  0  0  0  0  0
   -1.1000   -3.0792    0.0000 C   0  0  0  0  0  0  0  0  0  0  0  0
   -2.1250   -2.5250    0.0000 C   0  0  0  0  0  0  0  0  0  0  0  0
   -0.7708   -3.6375    0.0000 C   0  0  0  0  0  0  0  0  0  0  0  0
   -0.7708   -2.5250    0.0000 C   0  0  0  0  0  0  0  0  0  0  0  0
   -3.8500   -5.4167    0.0000 Cl  0  0  0  0  0  0  0  0  0  0  0  0
    0.8375   -1.2167    0.0000 Cl  0  0  0  0  0  0  0  0  0  0  0  0
    2.4917   -4.4625    0.0000 Cl  0  0  0  0  0  0  0  0  0  0  0  0
    7.2125   -3.6042    0.0000 C   0  0  0  0  0  0  0  0  0  0  0  0
    6.5667   -4.4417    0.0000 C   0  0  0  0  0  0  0  0  0  0  0  0
    7.6042   -4.1250    0.0000 C   0  0  0  0  0  0  0  0  0  0  0  0
  2  1  1  0
  3  9  1  0
  4  2  1  0
  5  6  2  0
  6  1  1  0
  3  7  1  0
  3  8  1  6
  9 25  1  0
 10  8  1  0
 11 19  2  0
 12 35  1  0
 13 29  1  0
 14 23  1  0
 15  7  2  0
 16 10  1  0
 17  1  1  0
 18 16  2  0
 19 10  1  0
 20  7  1  0
 21  2  2  0
 22 15  1  0
 23 34  1  0
 24 13  1  0
 25 43  1  6
 26 14  1  0
 27 26  1  0
 28 14  1  0
 29 28  1  0
 30  4  1  0
 31 17  2  0
 32 17  1  0
 33 31  1  0
 34 32  2  0
 35 25  1  0
 36 24  2  0
 37 24  1  0
 38 41  1  0
 39 15  1  0
 40 42  1  0
 41 20  2  0
 42 45  1  0
 43 40  1  0
 44 36  1  0
 45 37  2  0
 46 38  1  0
 49 30  1  0
 50 30  1  0
 51 49  1  0
  5  4  1  0
 23 33  2  0
 13 27  1  0
 44 42  2  0
  3 12  1  0
 18 11  1  0
 38 22  2  0
M  END
>  <ID>  (2501) 


>  <MOLENAME>  (2501) 
ITRACONAZOLE HYDROCHLORIDE

>  <therap>  (2501) 
antifungal

>  <ref>  (2501) 
Antimicrob. Agents Chemother. (1984), 26(4), 527-34; Antimicrob. Agents Chemother. (1984), 26(1), 5-9; J. Med. Chem. (1984), 27(7), 894-900

>  <cas#>  (2501) 
84625-61-6

>  <source>  (2501) 
synthetic; R-51211

>  <status>  (2501) 
USAN, INN, BAN, JAN

>  <tradename>  (2501) 
SPORANOX

>  <SMILES>  (2501) 
CCC(C)n1ncn(-c2ccc(N3CCN(c4ccc(OC[C@H]5CO[C@](Cn6cncn6)(c6c(Cl)cc(Cl)cc6)O5)cc4)CC3)cc2)c1=O

>  <standardized_failed>  (2501) 
False

$$$$

     RDKit          2D

 12 10  0  0  0  0  0  0  0  0999 V2000
    1.3667   -0.1375    0.0000 C   0  0  0  0  0  0  0  0  0  0  0  0
    1.3667    0.6875    0.0000 O   0  0  0  0  0  0  0  0  0  0  0  0
    0.6542   -0.5500    0.0000 C   0  0  0  0  0  0  0  0  0  0  0  0
   -0.0625   -0.1375    0.0000 C   0  0  0  0  0  0  0  0  0  0  0  0
    2.0792   -0.5500    0.0000 O   0  0  0  0  0  0  0  0  0  0  0  0
   -0.7750   -0.5500    0.0000 C   0  0  0  0  0  0  0  0  0  0  0  0
   -0.5375    1.7500    0.0000 Cl  0  0  0  0  0  0  0  0  0  0  0  0
    0.6542    1.1000    0.0000 N   0  0  0  0  0  0  0  0  0  0  0  0
   -0.0625    0.6875    0.0000 C   0  0  0  0  0  0  0  0  0  0  0  0
   -1.4958   -0.1375    0.0000 C   0  0  0  0  0  0  0  0  0  0  0  0
   -1.4958    0.6875    0.0000 C   0  0  0  0  0  0  0  0  0  0  0  0
   -2.2083   -0.5500    0.0000 C   0  0  0  0  0  0  0  0  0  0  0  0
  2  1  2  0
  3  1  1  0
  4  3  1  6
  5  1  1  0
  6  4  1  0
  8  9  1  0
  4  9  1  0
 10  6  1  0
 11 10  1  0
 12 10  1  0
M  END
>  <ID>  (2502) 


>  <MOLENAME>  (2502) 
PREGABALIN HYDROCHLORIDE

>  <therap>  (2502) 
anticonvulsant

>  <ref>  (2502) 
J Clin Psychiatry 65:596 (1033 (2004); Curr Opin Invest Drugs 5:82 (2004)

>  <cas#>  (2502) 
148553-50-8

>  <source>  (2502) 
synthetic; CI-1008

>  <status>  (2502) 
USAN, INN

>  <tradename>  (2502) 
LYRICA

>  <SMILES>  (2502) 
CC(C)C[C@H](CN)CC(=O)O

>  <standardized_failed>  (2502) 
False

$$$$

     RDKit          2D

 11 11  0  0  0  0  0  0  0  0999 V2000
    3.7542    1.2000    0.0000 S   0  0  0  0  0  0  0  0  0  0  0  0
    3.0417    0.7833    0.0000 C   0  0  0  0  0  0  0  0  0  0  0  0
    3.2667    1.7208    0.0000 O   0  0  0  0  0  0  0  0  0  0  0  0
    4.2375    1.7208    0.0000 O   0  0  0  0  0  0  0  0  0  0  0  0
    3.0417   -0.0417    0.0000 C   0  0  0  0  0  0  0  0  0  0  0  0
    4.4750    0.7958    0.0000 N   0  0  0  0  0  0  0  0  0  0  0  0
    3.7625   -0.4542    0.0000 N   0  0  0  0  0  0  0  0  0  0  0  0
    2.3292    1.1958    0.0000 C   0  0  0  0  0  0  0  0  0  0  0  0
    2.3292   -0.4542    0.0000 C   0  0  0  0  0  0  0  0  0  0  0  0
    1.6167    0.7833    0.0000 C   0  0  0  0  0  0  0  0  0  0  0  0
    1.6167   -0.0417    0.0000 C   0  0  0  0  0  0  0  0  0  0  0  0
  2  1  1  0
  3  1  2  0
  4  1  2  0
  5  2  2  0
  6  1  1  0
  7  5  1  0
  8  2  1  0
  9  5  1  0
 10  8  2  0
 11 10  1  0
  9 11  2  0
M  END
>  <ID>  (2503) 


>  <MOLENAME>  (2503) 
2-AMINOBENZENESULFONAMIDE

>  <therap>  (2503) 
antibacterial

>  <ref>  (2503) 
nan

>  <cas#>  (2503) 
nan

>  <source>  (2503) 
synthetic

>  <status>  (2503) 
experimental

>  <tradename>  (2503) 
nan

>  <SMILES>  (2503) 
Nc1c(S(N)(=O)=O)cccc1

>  <standardized_failed>  (2503) 
False

$$$$

     RDKit          2D

 15 16  0  0  0  0  0  0  0  0999 V2000
    2.0042    0.1083    0.0000 C   0  0  0  0  0  0  0  0  0  0  0  0
    2.7917   -0.1500    0.0000 C   0  0  0  0  0  0  0  0  0  0  0  0
    2.0042   -1.2292    0.0000 N   0  0  0  0  0  0  0  0  0  0  0  0
    1.5250   -0.5625    0.0000 N   0  0  0  0  0  0  0  0  0  0  0  0
    2.7917   -0.9750    0.0000 C   0  0  0  0  0  0  0  0  0  0  0  0
    1.7542    0.8875    0.0000 O   0  0  0  0  0  0  0  0  0  0  0  0
    0.7000   -0.5625    0.0000 C   0  0  0  0  0  0  0  0  0  0  0  0
    3.4542    0.3333    0.0000 N   0  0  0  0  0  0  0  0  0  0  0  0
    1.7542   -2.0167    0.0000 C   0  0  0  0  0  0  0  0  0  0  0  0
    3.4542   -1.4625    0.0000 C   0  0  0  0  0  0  0  0  0  0  0  0
    0.2875    0.1500    0.0000 C   0  0  0  0  0  0  0  0  0  0  0  0
    0.2875   -1.2750    0.0000 C   0  0  0  0  0  0  0  0  0  0  0  0
   -0.5375    0.1458    0.0000 C   0  0  0  0  0  0  0  0  0  0  0  0
   -0.5375   -1.2750    0.0000 C   0  0  0  0  0  0  0  0  0  0  0  0
   -0.9458   -0.5667    0.0000 C   0  0  0  0  0  0  0  0  0  0  0  0
  2  1  1  0
  3  4  1  0
  4  1  1  0
  5  2  2  0
  6  1  2  0
  7  4  1  0
  8  2  1  0
  9  3  1  0
 10  5  1  0
 11  7  2  0
 12  7  1  0
 13 11  1  0
 14 12  2  0
 15 14  1  0
  3  5  1  0
 13 15  2  0
M  END
>  <ID>  (2504) 


>  <MOLENAME>  (2504) 
AMPYRONE

>  <therap>  (2504) 
analgesic, antiinflammatory, antipyretic

>  <ref>  (2504) 
Clin Pharmacol  Ther 20:661 (1976);  J Pharm Pharmacol 31:787 (1979)

>  <cas#>  (2504) 
83-07-8

>  <source>  (2504) 
synthetic

>  <status>  (2504) 
experimental

>  <tradename>  (2504) 
nan

>  <SMILES>  (2504) 
Cc1c(N)c(=O)n(-c2ccccc2)n1C

>  <standardized_failed>  (2504) 
False

$$$$

     RDKit          2D

 67 74  0  0  0  0  0  0  0  0999 V2000
    6.5000   -1.5167    0.0000 C   0  0  0  0  0  0  0  0  0  0  0  0
    4.3500   -2.7375    0.0000 C   0  0  0  0  0  0  0  0  0  0  0  0
    6.4792   -2.3375    0.0000 C   0  0  0  0  0  0  0  0  0  0  0  0
    5.7667   -2.7417    0.0000 C   0  0  0  0  0  0  0  0  0  0  0  0
    7.9125   -1.5417    0.0000 C   0  0  0  0  0  0  0  0  0  0  0  0
    7.2125   -1.1167    0.0000 C   0  0  0  0  0  0  0  0  0  0  0  0
    8.0167  -10.1167    0.0000 C   0  0  0  0  0  0  0  0  0  0  0  0
    8.6042   -3.6042    0.0000 C   0  0  0  0  0  0  0  0  0  0  0  0
    3.6375   -3.9667    0.0000 C   0  0  0  0  0  0  0  0  0  0  0  0
    7.7292   -8.5000    0.0000 C   0  0  0  0  0  0  0  0  0  0  0  0
    5.0625   -2.3250    0.0000 C   0  0  0  0  0  0  0  0  0  0  0  0
    4.3417   -3.5625    0.0000 C   0  0  0  0  0  0  0  0  0  0  0  0
    8.7917  -10.4042    0.0000 C   0  0  0  0  0  0  0  0  0  0  0  0
    9.3167   -4.0250    0.0000 C   0  0  0  0  0  0  0  0  0  0  0  0
    8.2292   -7.1542    0.0000 C   0  0  0  0  0  0  0  0  0  0  0  0
    8.3667   -7.9750    0.0000 C   0  0  0  0  0  0  0  0  0  0  0  0
    8.6250   -1.9542    0.0000 C   0  0  0  0  0  0  0  0  0  0  0  0
    9.3167   -4.8500    0.0000 C   0  0  0  0  0  0  0  0  0  0  0  0
    8.9375  -11.2167    0.0000 C   0  0  0  0  0  0  0  0  0  0  0  0
    7.4500   -6.8750    0.0000 C   0  0  0  0  0  0  0  0  0  0  0  0
    7.8917   -4.0167    0.0000 O   0  0  0  0  0  0  0  0  0  0  0  0
    7.8792   -9.3125    0.0000 O   0  0  0  0  0  0  0  0  0  0  0  0
    7.3875  -10.6500    0.0000 O   0  0  0  0  0  0  0  0  0  0  0  0
    6.8167   -7.4042    0.0000 O   0  0  0  0  0  0  0  0  0  0  0  0
    8.6167   -2.7792    0.0000 O   0  0  0  0  0  0  0  0  0  0  0  0
    8.6000   -5.2542    0.0000 C   0  0  0  0  0  0  0  0  0  0  0  0
    5.7917   -1.0917    0.0000 C   0  0  0  0  0  0  0  0  0  0  0  0
    7.8875   -4.8417    0.0000 C   0  0  0  0  0  0  0  0  0  0  0  0
    8.3042  -11.7417    0.0000 C   0  0  0  0  0  0  0  0  0  0  0  0
    6.9542   -8.2167    0.0000 C   0  0  0  0  0  0  0  0  0  0  0  0
    3.6375   -2.3167    0.0000 C   0  0  0  0  0  0  0  0  0  0  0  0
    2.9292   -3.5625    0.0000 C   0  0  0  0  0  0  0  0  0  0  0  0
    7.5292  -11.4542    0.0000 C   0  0  0  0  0  0  0  0  0  0  0  0
    7.2292   -0.3000    0.0000 C   0  0  0  0  0  0  0  0  0  0  0  0
    2.9292   -2.7375    0.0000 C   0  0  0  0  0  0  0  0  0  0  0  0
    7.1875   -2.7542    0.0000 C   0  0  0  0  0  0  0  0  0  0  0  0
    5.7750   -3.5667    0.0000 C   0  0  0  0  0  0  0  0  0  0  0  0
    5.0667   -1.5000    0.0000 C   0  0  0  0  0  0  0  0  0  0  0  0
    7.9042   -2.3625    0.0000 C   0  0  0  0  0  0  0  0  0  0  0  0
    5.0542   -3.9750    0.0000 C   0  0  0  0  0  0  0  0  0  0  0  0
    8.6292   -1.1542    0.0000 C   0  0  0  0  0  0  0  0  0  0  0  0
    7.3125   -6.0625    0.0000 O   0  0  0  0  0  0  0  0  0  0  0  0
    7.1667   -5.2417    0.0000 C   0  0  0  0  0  0  0  0  0  0  0  0
    9.3375   -1.5417    0.0000 O   0  0  0  0  0  0  0  0  0  0  0  0
    7.9500    0.0958    0.0000 C   0  0  0  0  0  0  0  0  0  0  0  0
    8.6500   -0.3292    0.0000 C   0  0  0  0  0  0  0  0  0  0  0  0
   10.0375   -3.6167    0.0000 O   0  0  0  0  0  0  0  0  0  0  0  0
    9.4250   -9.8750    0.0000 O   0  0  0  0  0  0  0  0  0  0  0  0
    8.8625   -6.6292    0.0000 O   0  0  0  0  0  0  0  0  0  0  0  0
    9.1417   -8.2542    0.0000 O   0  0  0  0  0  0  0  0  0  0  0  0
   10.0292   -5.2667    0.0000 O   0  0  0  0  0  0  0  0  0  0  0  0
    9.7042  -11.5000    0.0000 O   0  0  0  0  0  0  0  0  0  0  0  0
    8.5917   -6.0792    0.0000 O   0  0  0  0  0  0  0  0  0  0  0  0
    4.2167   -4.5542    0.0000 C   0  0  0  0  0  0  0  0  0  0  0  0
    8.4417  -12.5542    0.0000 O   0  0  0  0  0  0  0  0  0  0  0  0
    4.3417   -1.9125    0.0000 C   0  0  0  0  0  0  0  0  0  0  0  0
    2.2125   -3.9667    0.0000 O   0  0  0  0  0  0  0  0  0  0  0  0
    6.4792   -3.1625    0.0000 C   0  0  0  0  0  0  0  0  0  0  0  0
    3.0500   -4.5542    0.0000 C   0  0  0  0  0  0  0  0  0  0  0  0
    5.7667   -1.9167    0.0000 C   0  0  0  0  0  0  0  0  0  0  0  0
    2.2125   -2.3250    0.0000 O   0  0  0  0  0  0  0  0  0  0  0  0
    6.3250   -8.7417    0.0000 C   0  0  0  0  0  0  0  0  0  0  0  0
    4.0042   -5.3500    0.0000 O   0  0  0  0  0  0  0  0  0  0  0  0
    6.5125    0.1125    0.0000 C   0  0  0  0  0  0  0  0  0  0  0  0
    6.6125   -9.5167    0.0000 O   0  0  0  0  0  0  0  0  0  0  0  0
    6.8917  -11.9875    0.0000 C   0  0  0  0  0  0  0  0  0  0  0  0
    7.9417    0.9208    0.0000 C   0  0  0  0  0  0  0  0  0  0  0  0
  2 11  1  0
  3  1  1  0
  4  3  1  0
  5  6  1  0
  6  1  1  0
  7 22  1  6
  8 25  1  1
  9 12  1  0
 10 30  1  0
 11 38  1  0
 12  2  1  0
 13  7  1  0
 14  8  1  0
 15 20  1  0
 16 15  1  0
  5 17  1  1
 18 14  1  0
 19 13  1  0
 20 42  1  1
 21  8  1  0
 10 22  1  6
 23  7  1  0
 24 20  1  0
 25 17  1  0
 26 28  1  0
 27  1  2  0
 28 21  1  0
 29 33  1  0
 30 24  1  0
 31  2  1  0
 32 35  1  0
 33 23  1  0
 34  6  1  0
 35 31  1  0
 36  3  1  0
 37  4  1  0
 38 27  1  0
 39  5  1  0
 40 37  1  0
 41  5  1  0
 42 43  1  0
 28 43  1  1
 44 17  2  0
 45 34  1  0
 46 45  1  0
 14 47  1  6
 13 48  1  6
 15 49  1  6
 16 50  1  1
 18 51  1  1
 19 52  1  6
 26 53  1  6
  9 54  1  0
 29 55  1  1
  2 56  1  1
 32 57  1  1
  3 58  1  6
  9 59  1  1
  4 60  1  1
 35 61  1  6
 30 62  1  1
 63 54  1  0
 34 64  1  1
 65 62  1  0
 33 66  1  1
 45 67  1  6
  4 11  1  0
 36 39  1  0
 41 46  1  0
 12 40  1  0
  9 32  1  0
 18 26  1  0
 16 10  1  0
 19 29  1  0
M  END
>  <ID>  (2505) 


>  <MOLENAME>  (2505) 
ASIATICOSIDE

>  <therap>  (2505) 
wound healing, anxiolytic

>  <ref>  (2505) 
Phytomedecine 13:668 (2006)

>  <cas#>  (2505) 
16830-15-2

>  <source>  (2505) 
Centella asiatica

>  <status>  (2505) 
experimental

>  <tradename>  (2505) 
nan

>  <SMILES>  (2505) 
C[C@@H]1C2C3=CCC4[C@@]5(C)C[C@@H](O)[C@H](O)[C@@](C)(CO)C5CC[C@@]4(C)[C@]3(C)CC[C@@]2(C(=O)O[C@@H]2O[C@H](CO[C@@H]3O[C@H](CO)[C@@H](O[C@H]4O[C@H](C)[C@H](O)[C@@H](O)[C@H]4O)[C@H](O)[C@H]3O)[C@@H](O)[C@H](O)[C@H]2O)CC[C@H]1C

>  <standardized_failed>  (2505) 
False

$$$$

     RDKit          2D

 64 65  0  0  0  0  0  0  0  0999 V2000
   -2.6333   -4.2417    0.0000 C   0  0  0  0  0  0  0  0  0  0  0  0
   10.9042   -1.2667    0.0000 C   0  0  0  0  0  0  0  0  0  0  0  0
   11.6250   -1.6792    0.0000 S   0  0  0  0  0  0  0  0  0  0  0  0
   -3.3458   -3.8292    0.0000 S   0  0  0  0  0  0  0  0  0  0  0  0
   10.1750    0.7833    0.0000 S   0  0  0  0  0  0  0  0  0  0  0  0
   -1.9125   -6.3042    0.0000 S   0  0  0  0  0  0  0  0  0  0  0  0
    9.4792   -1.2792    0.0000 C   0  0  0  0  0  0  0  0  0  0  0  0
   -1.2000   -4.2417    0.0000 C   0  0  0  0  0  0  0  0  0  0  0  0
   10.1917   -1.6875    0.0000 C   0  0  0  0  0  0  0  0  0  0  0  0
   -1.9208   -3.8292    0.0000 C   0  0  0  0  0  0  0  0  0  0  0  0
   -1.9208   -5.4792    0.0000 C   0  0  0  0  0  0  0  0  0  0  0  0
   10.1792   -0.0417    0.0000 C   0  0  0  0  0  0  0  0  0  0  0  0
   -1.2000   -5.0667    0.0000 C   0  0  0  0  0  0  0  0  0  0  0  0
    9.4792   -0.4625    0.0000 C   0  0  0  0  0  0  0  0  0  0  0  0
   10.8917   -0.4417    0.0000 C   0  0  0  0  0  0  0  0  0  0  0  0
   -2.6333   -5.0667    0.0000 C   0  0  0  0  0  0  0  0  0  0  0  0
   -0.4958   -3.8250    0.0000 C   0  0  0  0  0  0  0  0  0  0  0  0
    8.7750   -1.7042    0.0000 C   0  0  0  0  0  0  0  0  0  0  0  0
    7.3417   -1.7125    0.0000 N   0  0  0  0  0  0  0  0  0  0  0  0
    0.9375   -3.8167    0.0000 N   0  0  0  0  0  0  0  0  0  0  0  0
    1.6542   -4.2250    0.0000 N   0  0  0  0  0  0  0  0  0  0  0  0
    6.6292   -1.3042    0.0000 N   0  0  0  0  0  0  0  0  0  0  0  0
    8.0542   -1.2917    0.0000 C   0  0  0  0  0  0  0  0  0  0  0  0
    0.2250   -4.2292    0.0000 C   0  0  0  0  0  0  0  0  0  0  0  0
    2.3667   -3.8042    0.0000 C   0  0  0  0  0  0  0  0  0  0  0  0
    5.9167   -1.7250    0.0000 C   0  0  0  0  0  0  0  0  0  0  0  0
   -0.4833   -5.4792    0.0000 C   0  0  0  0  0  0  0  0  0  0  0  0
    8.7542   -0.0542    0.0000 C   0  0  0  0  0  0  0  0  0  0  0  0
    3.7875   -2.9792    0.0000 C   0  0  0  0  0  0  0  0  0  0  0  0
    4.4917   -2.5542    0.0000 C   0  0  0  0  0  0  0  0  0  0  0  0
   -4.0583   -3.4167    0.0000 O   0  0  0  0  0  0  0  0  0  0  0  0
   12.3375   -2.0917    0.0000 O   0  0  0  0  0  0  0  0  0  0  0  0
   10.1667    1.6083    0.0000 O   0  0  0  0  0  0  0  0  0  0  0  0
   -1.9208   -7.1292    0.0000 O   0  0  0  0  0  0  0  0  0  0  0  0
    5.1917   -1.3167    0.0000 C   0  0  0  0  0  0  0  0  0  0  0  0
    3.0792   -4.2167    0.0000 C   0  0  0  0  0  0  0  0  0  0  0  0
    4.4875   -1.7375    0.0000 C   0  0  0  0  0  0  0  0  0  0  0  0
    3.7917   -3.8042    0.0000 C   0  0  0  0  0  0  0  0  0  0  0  0
   -2.9333   -3.1167    0.0000 O   0  0  0  0  0  0  0  0  0  0  0  0
   12.0292   -0.9625    0.0000 O   0  0  0  0  0  0  0  0  0  0  0  0
   11.2042   -2.3917    0.0000 O   0  0  0  0  0  0  0  0  0  0  0  0
   -3.7583   -4.5417    0.0000 O   0  0  0  0  0  0  0  0  0  0  0  0
   -2.7375   -6.3042    0.0000 O   0  0  0  0  0  0  0  0  0  0  0  0
   -1.0875   -6.3042    0.0000 O   0  0  0  0  0  0  0  0  0  0  0  0
    9.3500    0.7833    0.0000 O   0  0  0  0  0  0  0  0  0  0  0  0
   11.0000    0.7833    0.0000 O   0  0  0  0  0  0  0  0  0  0  0  0
    0.2292   -5.0625    0.0000 C   0  0  0  0  0  0  0  0  0  0  0  0
    8.0417   -0.4750    0.0000 C   0  0  0  0  0  0  0  0  0  0  0  0
   10.2042   -2.5125    0.0000 N   0  0  0  0  0  0  0  0  0  0  0  0
   -1.9208   -3.0042    0.0000 N   0  0  0  0  0  0  0  0  0  0  0  0
    5.9250   -2.5500    0.0000 C   0  0  0  0  0  0  0  0  0  0  0  0
    2.3542   -2.9875    0.0000 C   0  0  0  0  0  0  0  0  0  0  0  0
    3.0667   -2.5667    0.0000 C   0  0  0  0  0  0  0  0  0  0  0  0
    5.2125   -2.9667    0.0000 C   0  0  0  0  0  0  0  0  0  0  0  0
   -0.4958   -3.0000    0.0000 O   0  0  0  0  0  0  0  0  0  0  0  0
    8.7792   -2.5292    0.0000 O   0  0  0  0  0  0  0  0  0  0  0  0
    5.1875   -0.4917    0.0000 O   0  0  0  0  0  0  0  0  0  0  0  0
    3.0792   -5.0417    0.0000 O   0  0  0  0  0  0  0  0  0  0  0  0
   -4.8125   -2.2417    0.0000 Na  0  0  0  0  0 15  0  0  0  0  0  0
   -1.1500   -7.5500    0.0000 Na  0  0  0  0  0 15  0  0  0  0  0  0
   12.8542   -3.1167    0.0000 Na  0  0  0  0  0 15  0  0  0  0  0  0
   11.1042    2.0333    0.0000 Na  0  0  0  0  0 15  0  0  0  0  0  0
    5.8917   -0.0750    0.0000 C   0  0  0  0  0  0  0  0  0  0  0  0
    2.3667   -5.4542    0.0000 C   0  0  0  0  0  0  0  0  0  0  0  0
  2  9  2  0
  3  2  1  0
  4  1  1  0
  5 12  1  0
  6 11  1  0
  7 18  2  0
  8 10  1  0
  9  7  1  0
 10  1  2  0
 11 16  2  0
 12 14  1  0
 13 11  1  0
 14 28  2  0
 15 12  2  0
 16  1  1  0
 17  8  2  0
 18 23  1  0
 19 22  2  0
 20 24  1  0
 21 20  2  0
 22 26  1  0
 23 19  1  0
 24 17  1  0
 25 21  1  0
 26 51  2  0
 27 13  2  0
 28 48  1  0
 29 53  1  0
 30 29  1  0
 31  4  1  0
 32  3  1  0
 33  5  1  0
 34  6  1  0
 35 37  2  0
 36 25  2  0
 37 30  1  0
 38 36  1  0
 39  4  2  0
 40  3  2  0
 41  3  2  0
 42  4  2  0
 43  6  2  0
 44  6  2  0
 45  5  2  0
 46  5  2  0
 47 27  1  0
 48 23  2  0
 49  9  1  0
 50 10  1  0
 51 54  1  0
 52 25  1  0
 53 52  2  0
 54 30  2  0
 55 17  1  0
 56 18  1  0
 57 35  1  0
 58 36  1  0
 63 57  1  0
 64 58  1  0
  8 13  1  0
 47 24  2  0
 38 29  2  0
 35 26  1  0
  7 14  1  0
  2 15  1  0
M  CHG  8  31  -1  32  -1  33  -1  34  -1  59   1  60   1  61   1  62   1
M  END
>  <ID>  (2506) 


>  <MOLENAME>  (2506) 
CHICAGO SKY BLUE

>  <therap>  (2506) 
inhibitor of aminoacid uptake

>  <ref>  (2506) 
J.Neurochem. 63 Suppl 1:S49A (1994); 65:96 (1995)

>  <cas#>  (2506) 
2610-05-1

>  <source>  (2506) 
synthetic

>  <status>  (2506) 
experimental

>  <tradename>  (2506) 
nan

>  <SMILES>  (2506) 
COc1cc(-c2cc(OC)c(/N=N/c3ccc4c(S(=O)(=O)O)cc(S(=O)(=O)O)c(N)c4c3O)cc2)ccc1/N=N/c1ccc2c(S(=O)(=O)O)cc(S(=O)(=O)O)c(N)c2c1O

>  <standardized_failed>  (2506) 
False

$$$$

     RDKit          2D

 35 38  0  0  0  0  0  0  0  0999 V2000
    4.9125   -3.7042    0.0000 C   0  0  0  0  0  0  0  0  0  0  0  0
    7.0625   -2.4875    0.0000 C   0  0  0  0  0  0  0  0  0  0  0  0
    5.6250   -3.2917    0.0000 C   0  0  0  0  0  0  0  0  0  0  0  0
    7.8417   -2.2500    0.0000 C   0  0  0  0  0  0  0  0  0  0  0  0
    4.9042   -4.5292    0.0000 C   0  0  0  0  0  0  0  0  0  0  0  0
    7.0500   -3.3125    0.0000 C   0  0  0  0  0  0  0  0  0  0  0  0
    6.3292   -3.7167    0.0000 C   0  0  0  0  0  0  0  0  0  0  0  0
    5.6292   -2.4667    0.0000 C   0  0  0  0  0  0  0  0  0  0  0  0
    4.2000   -3.2917    0.0000 C   0  0  0  0  0  0  0  0  0  0  0  0
    6.3542   -2.0667    0.0000 C   0  0  0  0  0  0  0  0  0  0  0  0
    8.3167   -2.9167    0.0000 C   0  0  0  0  0  0  0  0  0  0  0  0
    7.8250   -3.5792    0.0000 C   0  0  0  0  0  0  0  0  0  0  0  0
    6.3375   -4.5375    0.0000 C   0  0  0  0  0  0  0  0  0  0  0  0
    5.6167   -4.9417    0.0000 C   0  0  0  0  0  0  0  0  0  0  0  0
    4.2000   -4.9417    0.0000 C   0  0  0  0  0  0  0  0  0  0  0  0
    7.8417   -1.4250    0.0000 C   0  0  0  0  0  0  0  0  0  0  0  0
    8.6417   -1.8917    0.0000 O   0  0  0  0  0  0  0  0  0  0  0  0
    3.4917   -3.7042    0.0000 C   0  0  0  0  0  0  0  0  0  0  0  0
    3.4917   -4.5292    0.0000 C   0  0  0  0  0  0  0  0  0  0  0  0
    9.3792   -2.2125    0.0000 C   0  0  0  0  0  0  0  0  0  0  0  0
    9.9750   -0.9917    0.0000 C   0  0  0  0  0  0  0  0  0  0  0  0
    5.6167   -4.1167    0.0000 F   0  0  0  0  0  0  0  0  0  0  0  0
    8.5500   -1.0042    0.0000 C   0  0  0  0  0  0  0  0  0  0  0  0
    7.1250   -1.0125    0.0000 O   0  0  0  0  0  0  0  0  0  0  0  0
    9.2667   -1.4125    0.0000 O   0  0  0  0  0  0  0  0  0  0  0  0
    9.3875   -2.9250    0.0000 O   0  0  0  0  0  0  0  0  0  0  0  0
    9.9667   -0.1667    0.0000 O   0  0  0  0  0  0  0  0  0  0  0  0
    2.7750   -4.9417    0.0000 O   0  0  0  0  0  0  0  0  0  0  0  0
    4.9042   -2.8792    0.0000 C   0  0  0  0  0  0  0  0  0  0  0  0
    7.0542   -1.6625    0.0000 C   0  0  0  0  0  0  0  0  0  0  0  0
    4.9125   -2.0542    0.0000 O   0  0  0  0  0  0  0  0  0  0  0  0
    5.6167   -5.7667    0.0000 F   0  0  0  0  0  0  0  0  0  0  0  0
    8.9042   -3.5042    0.0000 C   0  0  0  0  0  0  0  0  0  0  0  0
   10.0917   -1.7917    0.0000 C   0  0  0  0  0  0  0  0  0  0  0  0
   10.6917   -1.4000    0.0000 C   0  0  0  0  0  0  0  0  0  0  0  0
  2 10  1  0
  3  1  1  0
  4  2  1  0
  5  1  1  0
  6  7  1  0
  7  3  1  0
  8  3  1  0
  9  1  1  0
 10  8  1  0
 11 12  1  0
 12  6  1  0
 13 14  1  0
 14  5  1  0
 15  5  2  0
  4 16  1  0
  4 17  1  6
 18  9  2  0
 19 18  1  0
 20 17  1  0
 21 25  1  0
  3 22  1  6
 23 16  1  0
 24 16  2  0
 25 23  1  0
 26 20  2  0
 27 21  2  0
 28 19  2  0
  1 29  1  1
  2 30  1  1
  8 31  1  1
 14 32  1  6
 11 33  1  1
 34 20  1  0
 35 21  1  0
 15 19  1  0
  7 13  1  0
  2  6  1  0
 11  4  1  0
M  END
>  <ID>  (2507) 


>  <MOLENAME>  (2507) 
DIFLORASONE DIACETATE

>  <therap>  (2507) 
antiinflammatory, glucocorticoid

>  <ref>  (2507) 
J. Int. Med. Res. (1981), 9(1), 79-81; Science (1977), 197(4307), 994-6; J. Int. Med. Res. (1976), 4(6), 454-61

>  <cas#>  (2507) 
33564-31-7

>  <source>  (2507) 
semisynthetic; U-34865

>  <status>  (2507) 
USP, INN, BAN, JAN

>  <tradename>  (2507) 
FLORONE

>  <SMILES>  (2507) 
CC(=O)OCC(=O)[C@@]1(OC(C)=O)[C@@H](C)CC2C3C[C@H](F)C4=CC(=O)C=C[C@]4(C)[C@@]3(F)[C@@H](O)C[C@@]21C

>  <standardized_failed>  (2507) 
False

$$$$

     RDKit          2D

 12 12  0  0  0  0  0  0  0  0999 V2000
    3.9167   -2.1417    0.0000 N   0  0  0  0  0  0  0  0  0  0  0  0
    5.3542   -2.1417    0.0000 C   0  0  0  0  0  0  0  0  0  0  0  0
    4.6375   -1.7292    0.0000 C   0  0  0  0  0  0  0  0  0  0  0  0
    6.0667   -1.7292    0.0000 O   0  0  0  0  0  0  0  0  0  0  0  0
    4.6375   -0.9042    0.0000 C   0  0  0  0  0  0  0  0  0  0  0  0
    3.2042   -1.7292    0.0000 C   0  0  0  0  0  0  0  0  0  0  0  0
    5.3542   -2.9667    0.0000 O   0  0  0  0  0  0  0  0  0  0  0  0
    3.9167   -0.4917    0.0000 C   0  0  0  0  0  0  0  0  0  0  0  0
    3.2042   -0.9042    0.0000 C   0  0  0  0  0  0  0  0  0  0  0  0
    2.4917   -0.4917    0.0000 C   0  0  0  0  0  0  0  0  0  0  0  0
    1.7792   -0.9042    0.0000 C   0  0  0  0  0  0  0  0  0  0  0  0
    1.0667   -0.5000    0.0000 C   0  0  0  0  0  0  0  0  0  0  0  0
  2  3  1  0
  3  1  2  0
  4  2  2  0
  5  3  1  0
  6  1  1  0
  7  2  1  0
  8  9  1  0
  9  6  2  0
 10  9  1  0
 11 10  1  0
 12 11  1  0
  5  8  2  0
M  END
>  <ID>  (2508) 


>  <MOLENAME>  (2508) 
FUSARIC ACID

>  <therap>  (2508) 
antiproliferative, dopamine beta-hydroxylase inhibitor

>  <ref>  (2508) 
Nature 176:697 (1955); Int J Exper Botany 78:155 (2009); Toxicon 57:176 (2011)

>  <cas#>  (2508) 
536-69-6

>  <source>  (2508) 
Fusarium spp

>  <status>  (2508) 
experimental

>  <tradename>  (2508) 
nan

>  <SMILES>  (2508) 
CCCc1cnc(C(=O)O)cc1

>  <standardized_failed>  (2508) 
False

$$$$

     RDKit          2D

 37 34  0  4  0  0  0  0  0  0999 V2000
   -1.3792   -1.6542    0.0000 C   0  0  0  0  0  0  0  0  0  0  0  0
   -0.5542   -1.6542    0.0000 C   0  0  0  0  0  0  0  0  0  0  0  0
   -1.3833   -2.4792    0.0000 C   0  0  0  0  0  0  0  0  0  0  0  0
   -2.0999   -2.8881    0.0000 N   0  0  0  0  0  0  0  0  0  0  0  0
    1.3333   -1.3417    0.0000 O   0  0  0  0  0  0  0  0  0  0  0  0
    1.7500   -2.0583    0.0000 C   0  0  0  0  0  0  0  0  0  0  0  0
    2.1623   -1.3392    0.0000 C   0  0  0  0  0  0  0  0  0  0  0  0
    1.7525   -2.8833    0.0000 C   0  0  0  0  0  0  0  0  0  0  0  0
    1.0393   -3.2980    0.0000 Cl  0  0  0  0  0  0  0  0  0  0  0  0
    3.6833   -1.4625    0.0000 C   0  0  0  0  0  0  0  0  0  0  0  0
    4.5083   -1.4625    0.0000 C   0  0  0  0  0  0  0  0  0  0  0  0
    3.6792   -2.2875    0.0000 C   0  0  0  0  0  0  0  0  0  0  0  0
    4.5042   -2.2875    0.0000 N   0  0  0  0  0  0  0  0  0  0  0  0
    5.0875   -2.8667    0.0000 C   0  0  0  0  0  0  0  0  0  0  0  0
    5.8833   -2.6542    0.0000 C   0  0  0  0  0  0  0  0  0  0  0  0
    6.4667   -3.2333    0.0000 C   0  0  0  0  0  0  0  0  0  0  0  0
    7.2625   -3.0208    0.0000 C   0  0  0  0  0  0  0  0  0  0  0  0
    7.4749   -2.2237    0.0000 C   0  0  0  0  0  0  0  0  0  0  0  0
    8.2715   -2.0090    0.0000 C   0  0  0  0  0  0  0  0  0  0  0  0
    8.8557   -2.5916    0.0000 N   0  0  0  0  0  0  0  0  0  0  0  0
    8.6433   -3.3888    0.0000 C   0  0  0  0  0  0  0  0  0  0  0  0
    9.6523   -2.3770    0.0000 C   0  0  0  0  0  0  0  0  0  0  0  0
    9.4375   -3.1708    0.0000 C   0  0  0  0  0  0  0  0  0  0  0  0
   11.1792   -1.4833    0.0000 C   0  0  0  0  0  0  0  0  0  0  0  0
   12.0042   -1.4833    0.0000 C   0  0  0  0  0  0  0  0  0  0  0  0
   11.1750   -2.3333    0.0000 C   0  0  0  0  0  0  0  0  0  0  0  0
   12.0000   -2.3333    0.0000 N   0  0  0  0  0  0  0  0  0  0  0  0
   12.2125   -3.1542    0.0000 C   0  0  0  0  0  0  0  0  0  0  0  0
   12.9250   -3.5750    0.0000 C   0  0  0  0  0  0  0  0  0  0  0  0
   13.6375   -3.1500    0.0000 C   0  0  0  0  0  0  0  0  0  0  0  0
   14.3500   -3.5708    0.0000 C   0  0  0  0  0  0  0  0  0  0  0  0
   15.0625   -3.1458    0.0000 C   0  0  0  0  0  0  0  0  0  0  0  0
   15.7750   -3.5708    0.0000 C   0  0  0  0  0  0  0  0  0  0  0  0
   16.4875   -3.1458    0.0000 C   0  0  0  0  0  0  0  0  0  0  0  0
   16.4865   -2.2958    0.0000 C   0  0  0  0  0  0  0  0  0  0  0  0
   15.7715   -1.8717    0.0000 C   0  0  0  0  0  0  0  0  0  0  0  0
   15.0576   -2.2975    0.0000 C   0  0  0  0  0  0  0  0  0  0  0  0
  6  8  1  0
 16 17  1  0
 17 18  1  0
 18 19  1  0
 19 20  1  0
 20 21  1  0
 20 22  1  0
 20 23  1  0
 10 11  1  0
 10 12  1  0
 12 13  1  0
 13 14  1  0
 14 15  1  0
 15 16  1  0
  1  2  1  0
  1  3  1  0
  3  4  1  0
  8  9  1  0
  6  5  1  0
  7  6  1  0
  5  7  1  0
 24 25  1  0
 24 26  1  0
 26 27  1  0
 27 28  1  0
 28 29  1  0
 29 30  1  0
 30 31  1  0
 31 32  1  0
 32 33  1  0
 33 34  1  0
 34 35  1  0
 35 36  1  0
 36 37  1  0
M  CHG  1  20   1
M  STY  4   1 SRU   2 SRU   3 SRU   4 SRU
M  SLB  4   1   1   2   2   3   3   4   4
M  SCN  4   1 HT    2 HT    3 HT    4 HT 
M  SAL   1 14  24  25  26  27  28  29  30  31  32  33  34  35  36  37
M  SDI   1  4   10.7500   -3.6500   10.7500   -1.2500
M  SDI   1  4   16.9000   -1.2500   16.9000   -3.6500
M  SMT   1 p
M  SAL   2  5   5   6   7   8   9
M  SDI   2  4    0.3500   -3.6000    0.3500   -1.2000
M  SDI   2  4    2.5500   -1.2000    2.5500   -3.6000
M  SAL   3  4   1   2   3   4
M  SDI   3  4   -2.5500   -3.6000   -2.5500   -1.2000
M  SDI   3  4   -0.4500   -1.2000   -0.4500   -3.6000
M  SMT   3 m
M  SAL   4 14  10  11  12  13  14  15  16  17  18  19  20  21  22  23
M  SDI   4  4    3.2500   -3.6000    3.2500   -1.2500
M  SDI   4  4   10.0500   -1.2500   10.0500   -3.6000
M  SMT   4 o
M  END
>  <ID>  (2509) 


>  <MOLENAME>  (2509) 
COLESEVALAM HYDROCHLORIDE (high mol wt copolymer @ 5mg/ml)

>  <therap>  (2509) 
antihyperlipidemic, cholesterol sequestrant

>  <ref>  (2509) 
Mayo Clin Proc 76:971 (2001); Ann Pharmacother 35:898 (2001)

>  <cas#>  (2509) 
182815-44-7

>  <source>  (2509) 
synthetic; GT-31-104; 10% aqueous DMSO

>  <status>  (2509) 
USAN, INN

>  <tradename>  (2509) 
WELCHOL

>  <SMILES>  (2509) 
CCCCCCCCCCNCCC.CCCN.CCCNCCCCCC[N+](C)(C)C.ClCC1CO1

>  <standardized_failed>  (2509) 
False

$$$$

     RDKit          2D

 28 31  0  0  0  0  0  0  0  0999 V2000
    8.4792   -2.8417    0.0000 C   0  0  0  0  0  0  0  0  0  0  0  0
    7.7792   -3.2625    0.0000 C   0  0  0  0  0  0  0  0  0  0  0  0
    2.0792   -3.2917    0.0000 N   0  0  0  0  0  0  0  0  0  0  0  0
    8.4750   -2.0167    0.0000 C   0  0  0  0  0  0  0  0  0  0  0  0
    7.0542   -2.8542    0.0000 N   0  0  0  0  0  0  0  0  0  0  0  0
    1.3667   -2.8792    0.0000 C   0  0  0  0  0  0  0  0  0  0  0  0
    6.3500   -3.2750    0.0000 C   0  0  0  0  0  0  0  0  0  0  0  0
    7.7542   -1.6167    0.0000 O   0  0  0  0  0  0  0  0  0  0  0  0
    5.6375   -2.8667    0.0000 C   0  0  0  0  0  0  0  0  0  0  0  0
    2.7917   -2.8792    0.0000 C   0  0  0  0  0  0  0  0  0  0  0  0
    1.3667   -2.0542    0.0000 C   0  0  0  0  0  0  0  0  0  0  0  0
    2.0667   -1.6417    0.0000 C   0  0  0  0  0  0  0  0  0  0  0  0
    4.2167   -2.8750    0.0000 O   0  0  0  0  0  0  0  0  0  0  0  0
    4.9292   -3.2792    0.0000 C   0  0  0  0  0  0  0  0  0  0  0  0
    9.1792   -1.5917    0.0000 O   0  0  0  0  0  0  0  0  0  0  0  0
    3.5042   -3.2875    0.0000 C   0  0  0  0  0  0  0  0  0  0  0  0
    2.7917   -2.0500    0.0000 C   0  0  0  0  0  0  0  0  0  0  0  0
    9.2000   -3.2417    0.0000 C   0  0  0  0  0  0  0  0  0  0  0  0
    7.7792   -4.0875    0.0000 C   0  0  0  0  0  0  0  0  0  0  0  0
    5.6417   -4.5042    0.0000 C   0  0  0  0  0  0  0  0  0  0  0  0
    6.3542   -4.1000    0.0000 C   0  0  0  0  0  0  0  0  0  0  0  0
    0.6500   -3.3000    0.0000 C   0  0  0  0  0  0  0  0  0  0  0  0
    4.9292   -4.1042    0.0000 C   0  0  0  0  0  0  0  0  0  0  0  0
    0.6500   -1.6417    0.0000 C   0  0  0  0  0  0  0  0  0  0  0  0
    9.2042   -4.0667    0.0000 C   0  0  0  0  0  0  0  0  0  0  0  0
    8.4917   -4.4917    0.0000 C   0  0  0  0  0  0  0  0  0  0  0  0
   -0.0625   -2.8875    0.0000 C   0  0  0  0  0  0  0  0  0  0  0  0
   -0.0625   -2.0625    0.0000 C   0  0  0  0  0  0  0  0  0  0  0  0
  2  1  2  0
  3 10  2  0
  4  1  1  0
  5  2  1  0
  6  3  1  0
  7  5  1  0
  8  4  2  0
  9  7  2  0
 10 16  1  0
 11 12  1  0
 12 17  2  0
 13 14  1  0
 14  9  1  0
 15  4  1  0
 16 13  1  0
 17 10  1  0
 18  1  1  0
 19  2  1  0
 20 21  2  0
 21  7  1  0
 22  6  2  0
 23 20  1  0
 24 11  2  0
 25 18  2  0
 26 25  1  0
 27 22  1  0
 28 24  1  0
 26 19  2  0
 23 14  2  0
  6 11  1  0
 27 28  2  0
M  END
>  <ID>  (2510) 


>  <MOLENAME>  (2510) 
SR-2640

>  <therap>  (2510) 
LTD4/ LTE4 antagonist

>  <ref>  (2510) 
Am Rev Respir Dis 137(suppl):427 (1988); Eur J Pharmacol 155:117 (1988); Biochem Pharmacol 38:2291 (1989); Agents Actions 29:299 (1990)

>  <cas#>  (2510) 
105350-26-3

>  <source>  (2510) 
synthetic; 2[3-(quinolin-2-ylmethoxy)phenylamino]benzoic acid

>  <status>  (2510) 
experimental

>  <tradename>  (2510) 
nan

>  <SMILES>  (2510) 
O=C(O)c1c(Nc2cc(OCc3nc4ccccc4cc3)ccc2)cccc1

>  <standardized_failed>  (2510) 
False

$$$$

     RDKit          2D

111104  0  0  0  0  0  0  0  0999 V2000
    7.1292   -1.7500    0.0000 C   0  0  0  0  0  0  0  0  0  0  0  0
    5.0500   -3.7292    0.0000 C   0  0  0  0  0  0  0  0  0  0  0  0
    5.0500   -5.3250    0.0000 S   0  0  0  0  0  0  0  0  0  0  0  0
    5.0375   -0.7625    0.0000 S   0  0  0  0  0  0  0  0  0  0  0  0
    7.0500    1.1583    0.0000 S   0  0  0  0  0  0  0  0  0  0  0  0
    2.9500   -4.1250    0.0000 S   0  0  0  0  0  0  0  0  0  0  0  0
    7.8375   -4.4042    0.0000 S   0  0  0  0  0  0  0  0  0  0  0  0
    6.7125   -1.0875    0.0000 C   0  0  0  0  0  0  0  0  0  0  0  0
    5.7542   -3.3292    0.0000 C   0  0  0  0  0  0  0  0  0  0  0  0
    4.3500   -3.3292    0.0000 C   0  0  0  0  0  0  0  0  0  0  0  0
    8.6917   -2.6250    0.0000 S   0  0  0  0  0  0  0  0  0  0  0  0
    9.6750    0.4083    0.0000 S   0  0  0  0  0  0  0  0  0  0  0  0
    2.1292   -2.1125    0.0000 S   0  0  0  0  0  0  0  0  0  0  0  0
    7.2417   -0.4750    0.0000 C   0  0  0  0  0  0  0  0  0  0  0  0
    5.7542   -2.5375    0.0000 C   0  0  0  0  0  0  0  0  0  0  0  0
    7.9375   -1.5542    0.0000 O   0  0  0  0  0  0  0  0  0  0  0  0
    7.0500    1.9583    0.0000 O   0  0  0  0  0  0  0  0  0  0  0  0
    4.2250   -0.7625    0.0000 O   0  0  0  0  0  0  0  0  0  0  0  0
    5.0500   -6.1167    0.0000 O   0  0  0  0  0  0  0  0  0  0  0  0
    2.1500   -4.1250    0.0000 O   0  0  0  0  0  0  0  0  0  0  0  0
    8.6500   -4.4042    0.0000 O   0  0  0  0  0  0  0  0  0  0  0  0
    6.4542   -2.1375    0.0000 O   0  0  0  0  0  0  0  0  0  0  0  0
    9.5000   -2.6250    0.0000 O   0  0  0  0  0  0  0  0  0  0  0  0
    1.3292   -2.1125    0.0000 O   0  0  0  0  0  0  0  0  0  0  0  0
   10.4750    0.4083    0.0000 O   0  0  0  0  0  0  0  0  0  0  0  0
    7.9875   -0.7625    0.0000 C   0  0  0  0  0  0  0  0  0  0  0  0
    4.3500   -2.5375    0.0000 C   0  0  0  0  0  0  0  0  0  0  0  0
    5.0500   -2.1375    0.0000 O   0  0  0  0  0  0  0  0  0  0  0  0
    5.0542   -4.5292    0.0000 O   0  0  0  0  0  0  0  0  0  0  0  0
    5.9042   -1.0292    0.0000 O   0  0  0  0  0  0  0  0  0  0  0  0
    6.4542   -3.7292    0.0000 O   0  0  0  0  0  0  0  0  0  0  0  0
    3.6542   -3.7292    0.0000 O   0  0  0  0  0  0  0  0  0  0  0  0
    7.0375    0.3000    0.0000 O   0  0  0  0  0  0  0  0  0  0  0  0
    7.1042   -2.6250    0.0000 C   0  0  0  0  0  0  0  0  0  0  0  0
    5.0500   -6.9125    0.0000 Al  0  0  0  0  0  3  0  0  0  0  0  0
    3.4250   -0.7625    0.0000 Al  0  0  0  0  0  3  0  0  0  0  0  0
    1.3375   -4.1250    0.0000 Al  0  0  0  0  0  3  0  0  0  0  0  0
    9.4500   -4.4042    0.0000 Al  0  0  0  0  0  3  0  0  0  0  0  0
    7.0500    2.7500    0.0000 Al  0  0  0  0  0  3  0  0  0  0  0  0
    0.5250   -2.1125    0.0000 Al  0  0  0  0  0  3  0  0  0  0  0  0
   10.3042   -2.6250    0.0000 Al  0  0  0  0  0  3  0  0  0  0  0  0
   11.2875    0.4083    0.0000 Al  0  0  0  0  0  3  0  0  0  0  0  0
    4.2500    2.9083    0.0000 Al  0  0  0  0  0  3  0  0  0  0  0  0
    2.1917    0.6708    0.0000 Al  0  0  0  0  0  3  0  0  0  0  0  0
   -1.4583   -1.3625    0.0000 Al  0  0  0  0  0  3  0  0  0  0  0  0
   -0.6583   -4.9500    0.0000 Al  0  0  0  0  0  3  0  0  0  0  0  0
   13.7000    2.2083    0.0000 Al  0  0  0  0  0  3  0  0  0  0  0  0
   13.4667   -2.8125    0.0000 Al  0  0  0  0  0  3  0  0  0  0  0  0
   11.9917   -5.0417    0.0000 Al  0  0  0  0  0  3  0  0  0  0  0  0
    8.5625   -6.9500    0.0000 Al  0  0  0  0  0  3  0  0  0  0  0  0
    7.8875   -2.6250    0.0000 O   0  0  0  0  0  0  0  0  0  0  0  0
    8.6750   -0.3375    0.0000 C   0  0  0  0  0  0  0  0  0  0  0  0
    3.6542   -2.1375    0.0000 C   0  0  0  0  0  0  0  0  0  0  0  0
    8.6500    0.4125    0.0000 O   0  0  0  0  0  0  0  0  0  0  0  0
    2.9417   -2.1125    0.0000 O   0  0  0  0  0  0  0  0  0  0  0  0
    7.8417   -3.6125    0.0000 O   0  0  0  0  0  0  0  0  0  0  0  0
    7.8417   -5.2000    0.0000 O   0  0  0  0  0  0  0  0  0  0  0  0
    2.9500   -4.9167    0.0000 O   0  0  0  0  0  0  0  0  0  0  0  0
    7.8500    1.1625    0.0000 O   0  0  0  0  0  0  0  0  0  0  0  0
    6.2375    1.1625    0.0000 O   0  0  0  0  0  0  0  0  0  0  0  0
    5.8542   -5.3250    0.0000 O   0  0  0  0  0  0  0  0  0  0  0  0
    5.0292    0.0250    0.0000 O   0  0  0  0  0  0  0  0  0  0  0  0
    5.0292   -1.5625    0.0000 O   0  0  0  0  0  0  0  0  0  0  0  0
    4.2417   -5.3250    0.0000 O   0  0  0  0  0  0  0  0  0  0  0  0
    2.9500   -3.3292    0.0000 O   0  0  0  0  0  0  0  0  0  0  0  0
    8.7000   -1.8375    0.0000 O   0  0  0  0  0  0  0  0  0  0  0  0
    9.6750    1.2000    0.0000 O   0  0  0  0  0  0  0  0  0  0  0  0
    2.1292   -1.3125    0.0000 O   0  0  0  0  0  0  0  0  0  0  0  0
    2.1292   -2.9042    0.0000 O   0  0  0  0  0  0  0  0  0  0  0  0
    9.6750   -0.3875    0.0000 O   0  0  0  0  0  0  0  0  0  0  0  0
    8.7000   -3.4250    0.0000 O   0  0  0  0  0  0  0  0  0  0  0  0
    5.8542   -6.9167    0.0000 O   0  0  0  0  0  0  0  0  0  0  0  0
    0.5375   -4.1250    0.0000 O   0  0  0  0  0  0  0  0  0  0  0  0
    7.0500    3.5458    0.0000 O   0  0  0  0  0  0  0  0  0  0  0  0
   11.2875    1.2000    0.0000 O   0  0  0  0  0  0  0  0  0  0  0  0
   10.3125   -1.8375    0.0000 O   0  0  0  0  0  0  0  0  0  0  0  0
   -0.2833   -2.1125    0.0000 O   0  0  0  0  0  0  0  0  0  0  0  0
    1.3375   -3.3292    0.0000 O   0  0  0  0  0  0  0  0  0  0  0  0
   11.1125   -2.6250    0.0000 O   0  0  0  0  0  0  0  0  0  0  0  0
    2.6125   -0.7625    0.0000 O   0  0  0  0  0  0  0  0  0  0  0  0
   12.0875    0.4083    0.0000 O   0  0  0  0  0  0  0  0  0  0  0  0
    5.0500   -7.7042    0.0000 O   0  0  0  0  0  0  0  0  0  0  0  0
   10.2625   -4.4042    0.0000 O   0  0  0  0  0  0  0  0  0  0  0  0
    6.2375    2.7500    0.0000 O   0  0  0  0  0  0  0  0  0  0  0  0
    0.5167   -1.3125    0.0000 O   0  0  0  0  0  0  0  0  0  0  0  0
    3.4167    0.0250    0.0000 O   0  0  0  0  0  0  0  0  0  0  0  0
    9.4542   -3.6125    0.0000 O   0  0  0  0  0  0  0  0  0  0  0  0
    4.2500    3.5708    0.0000 O   0  0  0  0  0  0  0  0  0  0  0  0
   -2.1250   -1.3625    0.0000 O   0  0  0  0  0  0  0  0  0  0  0  0
   -0.7875   -1.3625    0.0000 O   0  0  0  0  0  0  0  0  0  0  0  0
   -1.4625   -0.7000    0.0000 O   0  0  0  0  0  0  0  0  0  0  0  0
    3.5792    2.9083    0.0000 O   0  0  0  0  0  0  0  0  0  0  0  0
   -1.3250   -4.9500    0.0000 O   0  0  0  0  0  0  0  0  0  0  0  0
    0.0125   -4.9500    0.0000 O   0  0  0  0  0  0  0  0  0  0  0  0
   -0.6625   -4.2875    0.0000 O   0  0  0  0  0  0  0  0  0  0  0  0
    4.9250    2.9083    0.0000 O   0  0  0  0  0  0  0  0  0  0  0  0
   13.0250    2.2083    0.0000 O   0  0  0  0  0  0  0  0  0  0  0  0
   14.3667    2.2083    0.0000 O   0  0  0  0  0  0  0  0  0  0  0  0
   13.6917    2.8625    0.0000 O   0  0  0  0  0  0  0  0  0  0  0  0
    1.5292    0.6708    0.0000 O   0  0  0  0  0  0  0  0  0  0  0  0
   12.8000   -2.8125    0.0000 O   0  0  0  0  0  0  0  0  0  0  0  0
   14.1375   -2.8125    0.0000 O   0  0  0  0  0  0  0  0  0  0  0  0
   13.4625   -2.1500    0.0000 O   0  0  0  0  0  0  0  0  0  0  0  0
    2.8750    0.6708    0.0000 O   0  0  0  0  0  0  0  0  0  0  0  0
   11.3250   -5.0417    0.0000 O   0  0  0  0  0  0  0  0  0  0  0  0
   12.6625   -5.0417    0.0000 O   0  0  0  0  0  0  0  0  0  0  0  0
   11.9875   -4.3792    0.0000 O   0  0  0  0  0  0  0  0  0  0  0  0
    2.1917    1.3333    0.0000 O   0  0  0  0  0  0  0  0  0  0  0  0
    7.8875   -6.9500    0.0000 O   0  0  0  0  0  0  0  0  0  0  0  0
    9.2292   -6.9500    0.0000 O   0  0  0  0  0  0  0  0  0  0  0  0
    8.5542   -6.2875    0.0000 O   0  0  0  0  0  0  0  0  0  0  0  0
  2  9  1  0
  3 29  1  0
  4 30  1  0
  5 33  1  0
  6 32  1  0
  7 31  1  0
  8  1  1  0
  9 15  1  0
 10  2  1  0
 11 51  1  0
 12 54  1  0
 13 55  1  0
 14  8  1  0
 15 22  1  6
 16  1  1  0
 17  5  1  0
 18  4  1  0
 19  3  1  0
 20  6  1  0
 21  7  1  0
  1 22  1  0
 23 11  1  0
 24 13  1  0
 25 12  1  0
 26 16  1  0
 27 28  1  0
 28 15  1  0
  2 29  1  1
  8 30  1  1
  9 31  1  6
 10 32  1  6
 14 33  1  6
  1 34  1  6
 35 19  1  0
 36 18  1  0
 37 20  1  0
 38 21  1  0
 39 17  1  0
 40 24  1  0
 41 23  1  0
 42 25  1  0
 51 34  1  0
 26 52  1  1
 27 53  1  1
 54 52  1  0
 55 53  1  0
 56  7  2  0
 57  7  2  0
 58  6  2  0
 59  5  2  0
 60  5  2  0
 61  3  2  0
 62  4  2  0
 63  4  2  0
 64  3  2  0
 65  6  2  0
 66 11  2  0
 67 12  2  0
 68 13  2  0
 69 13  2  0
 70 12  2  0
 71 11  2  0
 72 35  1  0
 73 37  1  0
 74 39  1  0
 75 42  1  0
 76 41  1  0
 77 40  1  0
 78 37  1  0
 79 41  1  0
 80 36  1  0
 81 42  1  0
 82 35  1  0
 83 38  1  0
 84 39  1  0
 85 40  1  0
 86 36  1  0
 87 38  1  0
 88 43  1  0
 89 45  1  0
 90 45  1  0
 91 45  1  0
 92 43  1  0
 93 46  1  0
 94 46  1  0
 95 46  1  0
 96 43  1  0
 97 47  1  0
 98 47  1  0
 99 47  1  0
100 44  1  0
101 48  1  0
102 48  1  0
103 48  1  0
104 44  1  0
105 49  1  0
106 49  1  0
107 49  1  0
108 44  1  0
109 50  1  0
110 50  1  0
111 50  1  0
 26 14  1  0
 27 10  1  0
M  END
>  <ID>  (2511) 


>  <MOLENAME>  (2511) 
SUCRALFATE [5mM]

>  <therap>  (2511) 
antiulcer

>  <ref>  (2511) 
Arzneim Forsch 29:793, 1668 (1979); 30:73 (1980); Drugs 27:194 (1984)

>  <cas#>  (2511) 
54182-58-0 (free acid)

>  <source>  (2511) 
semisynthetic; 10% aqueous DMSO

>  <status>  (2511) 
USP, INN, BAN, JAN

>  <tradename>  (2511) 
CARAFATE

>  <SMILES>  (2511) 
O=S(=O)(OC[C@H]1O[C@H](O[C@]2(COS(=O)(=O)O[Al](O)O)O[C@H](COS(=O)(=O)O[Al](O)O)[C@@H](OS(=O)(=O)O[Al](O)O)[C@@H]2OS(=O)(=O)O[Al](O)O)[C@H](OS(=O)(=O)O[Al](O)O)[C@@H](OS(=O)(=O)O[Al](O)O)[C@@H]1OS(=O)(=O)O[Al](O)O)O[Al](O)O.O[Al](O)O.O[Al](O)O.O[Al](O)O.O[Al](O)O.O[Al](O)O.O[Al](O)O.O[Al](O)O.O[Al](O)O

>  <standardized_failed>  (2511) 
False

$$$$

     RDKit          2D

 13 10  0  0  0  0  0  0  0  0999 V2000
    3.6667   -1.9917    0.0000 O   0  0  0  0  0  0  0  0  0  0  0  0
    3.6667   -1.1625    0.0000 As  0  0  0  0  0  3  0  0  0  0  0  0
    2.9542   -2.4042    0.0000 As  0  0  0  0  0  3  0  0  0  0  0  0
    2.9542   -3.2292    0.0000 O   0  0  0  0  0  0  0  0  0  0  0  0
    4.3792   -0.7500    0.0000 O   0  0  0  0  0  0  0  0  0  0  0  0
    1.8375   -3.2792    0.0000 N   0  0  0  0  0  0  0  0  0  0  0  0
    5.6292   -0.5750    0.0000 N   0  0  0  0  0  0  0  0  0  0  0  0
    0.6875   -3.9375    0.0000 O   0  0  0  0  0  0  0  0  0  0  0  0
    6.7750   -1.2292    0.0000 O   0  0  0  0  0  0  0  0  0  0  0  0
    6.2000   -0.2417    0.0000 C   0  0  0  0  0  0  0  0  0  0  0  0
    1.2667   -2.9417    0.0000 C   0  0  0  0  0  0  0  0  0  0  0  0
    6.7750   -0.5667    0.0000 C   0  0  0  0  0  0  0  0  0  0  0  0
    0.6917   -3.2750    0.0000 C   0  0  0  0  0  0  0  0  0  0  0  0
  2  1  1  0
  3  1  1  0
  4  3  1  0
  5  2  1  0
  8 13  1  0
  9 12  1  0
 10  7  1  0
 11  6  1  0
 12 10  1  0
 13 11  1  0
M  END
>  <ID>  (2512) 


>  <MOLENAME>  (2512) 
ARSENIC TRIOXIDE DIETHANOLAMINE SALT

>  <therap>  (2512) 
antineoplastic, antileukemia

>  <ref>  (2512) 
Pharmacol Ther 76:141 (1997); Blood 93:268 (1999); N Engl J Med 339:1341 (1998)

>  <cas#>  (2512) 
1327-53-3

>  <source>  (2512) 
mineral

>  <status>  (2512) 
USAN, JAN

>  <tradename>  (2512) 
TRISENOX

>  <SMILES>  (2512) 
O[AsH]O[AsH]O

>  <standardized_failed>  (2512) 
False

$$$$

     RDKit          2D

 22 24  0  0  0  0  0  0  0  0999 V2000
    2.2667   -4.4042    0.0000 C   0  0  0  0  0  0  0  0  0  0  0  0
    1.7750   -3.9167    0.0000 C   0  0  0  0  0  0  0  0  0  0  0  0
    3.0667   -4.2667    0.0000 N   0  0  0  0  0  0  0  0  0  0  0  0
   -0.3750   -4.3292    0.0000 N   0  0  0  0  0  0  0  0  0  0  0  0
    1.7667   -3.0875    0.0000 C   0  0  0  0  0  0  0  0  0  0  0  0
    2.2875   -2.5875    0.0000 N   0  0  0  0  0  0  0  0  0  0  0  0
    2.0167   -5.1917    0.0000 C   0  0  0  0  0  0  0  0  0  0  0  0
    1.0542   -4.3292    0.0000 C   0  0  0  0  0  0  0  0  0  0  0  0
    0.3417   -3.9167    0.0000 C   0  0  0  0  0  0  0  0  0  0  0  0
    3.0875   -2.7375    0.0000 C   0  0  0  0  0  0  0  0  0  0  0  0
   -1.0958   -3.9167    0.0000 O   0  0  0  0  0  0  0  0  0  0  0  0
   -0.3750   -5.1542    0.0000 O   0  0  0  0  0  0  0  0  0  0  0  0
    3.4542   -3.5125    0.0000 C   0  0  0  0  0  0  0  0  0  0  0  0
    2.5792   -5.7917    0.0000 C   0  0  0  0  0  0  0  0  0  0  0  0
    1.0542   -2.6750    0.0000 C   0  0  0  0  0  0  0  0  0  0  0  0
    0.3417   -3.0875    0.0000 C   0  0  0  0  0  0  0  0  0  0  0  0
    3.5917   -2.0792    0.0000 O   0  0  0  0  0  0  0  0  0  0  0  0
    3.3792   -5.6125    0.0000 Cl  0  0  0  0  0  0  0  0  0  0  0  0
    1.2167   -5.3667    0.0000 C   0  0  0  0  0  0  0  0  0  0  0  0
    2.3292   -6.5792    0.0000 C   0  0  0  0  0  0  0  0  0  0  0  0
    0.9667   -6.1542    0.0000 C   0  0  0  0  0  0  0  0  0  0  0  0
    1.5250   -6.7625    0.0000 C   0  0  0  0  0  0  0  0  0  0  0  0
  2  1  1  0
  3  1  2  0
  4  9  1  0
  5  2  2  0
  6  5  1  0
  7  1  1  0
  8  2  1  0
  9  8  2  0
 10 13  1  0
 11  4  1  0
 12  4  2  0
 13  3  1  0
 14  7  2  0
 15  5  1  0
 16  9  1  0
 17 10  2  0
 18 14  1  0
 19  7  1  0
 20 14  1  0
 21 19  2  0
 22 21  1  0
 10  6  1  0
 20 22  2  0
 15 16  2  0
M  CHG  2   4   1  11  -1
M  END
>  <ID>  (2513) 


>  <MOLENAME>  (2513) 
CLONAZEPAM

>  <therap>  (2513) 
anticonvulsant, sedative

>  <ref>  (2513) 
Pediatr Neurol 9:465 (1993); J Forensic Sci 40:382 (1995); Am J Psychiatry 155:1339 (1998); Int Clin Psychopharmacol 18:101 (2003)

>  <cas#>  (2513) 
1622-61-3

>  <source>  (2513) 
synthetic

>  <status>  (2513) 
USAN

>  <tradename>  (2513) 
KLONOPIM

>  <SMILES>  (2513) 
O=C1CN=C(c2c(Cl)cccc2)c2c(ccc([N+](=O)[O-])c2)N1

>  <standardized_failed>  (2513) 
False

$$$$

     RDKit          2D

 38 41  0  0  0  0  0  0  0  0999 V2000
    4.9667   -2.3667    0.0000 C   0  0  0  0  0  0  0  0  0  0  0  0
    4.9750   -3.2000    0.0000 N   0  0  0  0  0  0  0  0  0  0  0  0
    3.5417   -3.2042    0.0000 C   0  0  0  0  0  0  0  0  0  0  0  0
    6.4292   -4.3667    0.0000 S   0  0  0  0  0  0  0  0  0  0  0  0
    4.2625   -3.6167    0.0000 C   0  0  0  0  0  0  0  0  0  0  0  0
    4.2542   -1.9625    0.0000 N   0  0  0  0  0  0  0  0  0  0  0  0
    8.5375   -1.1250    0.0000 C   0  0  0  0  0  0  0  0  0  0  0  0
    3.5417   -2.3792    0.0000 C   0  0  0  0  0  0  0  0  0  0  0  0
    7.8250   -0.7125    0.0000 C   0  0  0  0  0  0  0  0  0  0  0  0
    8.5292   -1.9542    0.0000 O   0  0  0  0  0  0  0  0  0  0  0  0
    5.6792   -1.9542    0.0000 N   0  0  0  0  0  0  0  0  0  0  0  0
    7.1042   -1.1292    0.0000 N   0  0  0  0  0  0  0  0  0  0  0  0
    2.8292   -3.6167    0.0000 C   0  0  0  0  0  0  0  0  0  0  0  0
    2.8292   -1.9667    0.0000 C   0  0  0  0  0  0  0  0  0  0  0  0
    9.9625   -1.1292    0.0000 O   0  0  0  0  0  0  0  0  0  0  0  0
    9.2417   -2.3625    0.0000 C   0  0  0  0  0  0  0  0  0  0  0  0
    2.1167   -3.2042    0.0000 C   0  0  0  0  0  0  0  0  0  0  0  0
    2.1167   -2.3792    0.0000 C   0  0  0  0  0  0  0  0  0  0  0  0
    9.2417   -0.7125    0.0000 C   0  0  0  0  0  0  0  0  0  0  0  0
    7.0917   -4.7500    0.0000 O   0  0  0  0  0  0  0  0  0  0  0  0
    6.4292   -3.6042    0.0000 O   0  0  0  0  0  0  0  0  0  0  0  0
    9.9625   -1.9542    0.0000 C   0  0  0  0  0  0  0  0  0  0  0  0
    5.6792   -1.1292    0.0000 C   0  0  0  0  0  0  0  0  0  0  0  0
    6.4000   -2.3667    0.0000 C   0  0  0  0  0  0  0  0  0  0  0  0
    7.1125   -1.9542    0.0000 C   0  0  0  0  0  0  0  0  0  0  0  0
    6.3917   -0.7167    0.0000 C   0  0  0  0  0  0  0  0  0  0  0  0
    7.8167    0.1125    0.0000 O   0  0  0  0  0  0  0  0  0  0  0  0
    7.0917   -3.9792    0.0000 O   0  0  0  0  0  0  0  0  0  0  0  0
    4.2625   -4.4417    0.0000 N   0  0  0  0  0  0  0  0  0  0  0  0
    5.7750   -4.7500    0.0000 C   0  0  0  0  0  0  0  0  0  0  0  0
    1.4000   -3.6167    0.0000 O   0  0  0  0  0  0  0  0  0  0  0  0
    1.4042   -1.9667    0.0000 O   0  0  0  0  0  0  0  0  0  0  0  0
    9.2417   -3.1792    0.0000 C   0  0  0  0  0  0  0  0  0  0  0  0
   10.6667   -2.3625    0.0000 C   0  0  0  0  0  0  0  0  0  0  0  0
    0.6875   -3.2042    0.0000 C   0  0  0  0  0  0  0  0  0  0  0  0
    1.4042   -1.1417    0.0000 C   0  0  0  0  0  0  0  0  0  0  0  0
    9.9542   -3.6000    0.0000 C   0  0  0  0  0  0  0  0  0  0  0  0
   10.6750   -3.1792    0.0000 C   0  0  0  0  0  0  0  0  0  0  0  0
  2  1  2  0
  3  5  2  0
  5  2  1  0
  6  1  1  0
  7  9  1  0
  8  6  2  0
  9 12  1  0
 10  7  1  0
 11  1  1  0
 12 26  1  0
 13  3  1  0
 14  8  1  0
 15 19  1  0
 16 10  1  0
 17 13  2  0
 18 14  2  0
 19  7  1  0
 20  4  2  0
 21  4  2  0
 22 15  1  0
 23 11  1  0
 24 11  1  0
 25 24  1  0
 26 23  1  0
 27  9  2  0
 28  4  1  0
 29  5  1  0
 30  4  1  0
 31 17  1  0
 32 18  1  0
 33 16  2  0
 34 22  2  0
 35 31  1  0
 36 32  1  0
 37 33  1  0
 38 34  1  0
  8  3  1  0
 25 12  1  0
 18 17  1  0
 16 22  1  0
 37 38  2  0
M  END
>  <ID>  (2514) 


>  <MOLENAME>  (2514) 
DOXAZOSIN MESYLATE

>  <therap>  (2514) 
antihypertensive

>  <ref>  (2514) 
J. Med. Chem. (1987), 30(1), 49-57; Drug Des. Delivery (1986), 1(1), 83-99; Arch. Int. Pharmacodyn. Ther. (1980), 245(2), 218-35

>  <cas#>  (2514) 
77883-43-3

>  <source>  (2514) 
synthetic; UK-33274-27

>  <status>  (2514) 
USAN, INN, BAN, JAN

>  <tradename>  (2514) 
CARDURA

>  <SMILES>  (2514) 
COc1cc2nc(N3CCN(C(=O)C4COc5ccccc5O4)CC3)nc(N)c2cc1OC

>  <standardized_failed>  (2514) 
False

$$$$

     RDKit          2D

 34 35  0  0  0  0  0  0  0  0999 V2000
    7.8625   -0.6417    0.0000 C   0  0  0  0  0  0  0  0  0  0  0  0
    8.3375   -0.3750    0.0000 C   0  0  0  0  0  0  0  0  0  0  0  0
    5.7292   -1.4167    0.0000 N   0  0  0  0  0  0  0  0  0  0  0  0
    7.3792   -0.3750    0.0000 C   0  0  0  0  0  0  0  0  0  0  0  0
    8.8167   -0.6417    0.0000 C   0  0  0  0  0  0  0  0  0  0  0  0
    5.3167   -0.7042    0.0000 C   0  0  0  0  0  0  0  0  0  0  0  0
    4.4917   -0.7042    0.0000 C   0  0  0  0  0  0  0  0  0  0  0  0
    4.0792   -1.4167    0.0000 C   0  0  0  0  0  0  0  0  0  0  0  0
    5.3125   -2.1375    0.0000 C   0  0  0  0  0  0  0  0  0  0  0  0
    6.5500   -1.4167    0.0000 C   0  0  0  0  0  0  0  0  0  0  0  0
    6.9042   -0.6417    0.0000 O   0  0  0  0  0  0  0  0  0  0  0  0
    8.8167   -1.2042    0.0000 O   0  0  0  0  0  0  0  0  0  0  0  0
    3.2542   -1.4250    0.0000 C   0  0  0  0  0  0  0  0  0  0  0  0
    4.4917   -2.1292    0.0000 C   0  0  0  0  0  0  0  0  0  0  0  0
    8.3375    0.1750    0.0000 O   0  0  0  0  0  0  0  0  0  0  0  0
    7.8625   -1.2042    0.0000 O   0  0  0  0  0  0  0  0  0  0  0  0
    9.2917   -0.3750    0.0000 O   0  0  0  0  0  0  0  0  0  0  0  0
    7.3792    0.1750    0.0000 O   0  0  0  0  0  0  0  0  0  0  0  0
    4.0750    0.0083    0.0000 O   0  0  0  0  0  0  0  0  0  0  0  0
    3.2542   -2.8417    0.0000 C   0  0  0  0  0  0  0  0  0  0  0  0
    6.9542   -3.5667    0.0000 C   0  0  0  0  0  0  0  0  0  0  0  0
    2.8417   -2.1375    0.0000 C   0  0  0  0  0  0  0  0  0  0  0  0
    4.0792   -2.8417    0.0000 C   0  0  0  0  0  0  0  0  0  0  0  0
    5.7167   -2.8500    0.0000 C   0  0  0  0  0  0  0  0  0  0  0  0
    6.9625   -2.1375    0.0000 C   0  0  0  0  0  0  0  0  0  0  0  0
    6.5417   -2.8500    0.0000 C   0  0  0  0  0  0  0  0  0  0  0  0
    7.7792   -3.5667    0.0000 C   0  0  0  0  0  0  0  0  0  0  0  0
    2.8417   -3.5542    0.0000 O   0  0  0  0  0  0  0  0  0  0  0  0
    5.7250    0.0083    0.0000 C   0  0  0  0  0  0  0  0  0  0  0  0
    8.1875   -4.2792    0.0000 C   0  0  0  0  0  0  0  0  0  0  0  0
    8.1875   -2.8542    0.0000 C   0  0  0  0  0  0  0  0  0  0  0  0
    9.0125   -2.8542    0.0000 C   0  0  0  0  0  0  0  0  0  0  0  0
    9.0125   -4.2875    0.0000 C   0  0  0  0  0  0  0  0  0  0  0  0
    9.4292   -3.5667    0.0000 C   0  0  0  0  0  0  0  0  0  0  0  0
  2  1  1  0
  4  1  1  0
  5  2  1  0
  6  3  1  0
  7  6  1  0
  8  7  1  0
  9  3  1  0
 10  3  1  0
 11  4  2  0
 12  5  2  0
 13  8  2  0
 14  8  1  0
  2 15  1  1
  1 16  1  1
 17  5  1  0
 18  4  1  0
 19  7  1  0
 20 23  1  0
 21 26  1  0
 22 13  1  0
 23 14  2  0
 24  9  1  0
 25 10  1  0
 26 25  1  0
 27 21  1  0
 28 20  1  0
 29  6  1  0
 30 27  2  0
 31 27  1  0
 32 31  2  0
 33 30  1  0
 34 32  1  0
 24 26  1  0
 22 20  2  0
 33 34  2  0
M  END
>  <ID>  (2515) 


>  <MOLENAME>  (2515) 
IFENPRODIL TARTRATE

>  <therap>  (2515) 
NMDA receptor blocker

>  <ref>  (2515) 
Mol. Pharmacol. 36: 758 (1989)

>  <cas#>  (2515) 
23210-58-4

>  <source>  (2515) 
synthetic; RC-61-91

>  <status>  (2515) 
INN

>  <tradename>  (2515) 
nan

>  <SMILES>  (2515) 
CC(C(O)c1ccc(O)cc1)N1CCC(Cc2ccccc2)CC1

>  <standardized_failed>  (2515) 
False

$$$$

     RDKit          2D

 15 14  0  0  0  0  0  0  0  0999 V2000
    4.7875    0.4208    0.0000 N   0  0  0  0  0  0  0  0  0  0  0  0
    5.5042    0.0125    0.0000 C   0  0  0  0  0  0  0  0  0  0  0  0
    4.0750    0.0083    0.0000 C   0  0  0  0  0  0  0  0  0  0  0  0
    5.5042   -0.8125    0.0000 O   0  0  0  0  0  0  0  0  0  0  0  0
    3.3542    0.4208    0.0000 C   0  0  0  0  0  0  0  0  0  0  0  0
    4.0750   -0.8250    0.0000 C   0  0  0  0  0  0  0  0  0  0  0  0
    6.2167    0.4250    0.0000 C   0  0  0  0  0  0  0  0  0  0  0  0
    6.9292    0.0208    0.0000 N   0  0  0  0  0  0  0  0  0  0  0  0
    8.3875    0.1333    0.0000 Cl  0  0  0  0  0  0  0  0  0  0  0  0
    2.6417   -0.8250    0.0000 C   0  0  0  0  0  0  0  0  0  0  0  0
    2.6417   -0.0000    0.0000 C   0  0  0  0  0  0  0  0  0  0  0  0
    3.3542   -1.2375    0.0000 C   0  0  0  0  0  0  0  0  0  0  0  0
    4.7917   -1.2375    0.0000 C   0  0  0  0  0  0  0  0  0  0  0  0
    3.3542    1.2458    0.0000 C   0  0  0  0  0  0  0  0  0  0  0  0
    6.2125    1.2500    0.0000 C   0  0  0  0  0  0  0  0  0  0  0  0
  2  1  1  0
  3  1  1  0
  4  2  2  0
  5  3  2  0
  6  3  1  0
  7  2  1  0
  8  7  1  0
 10 12  1  0
 11  5  1  0
 12  6  2  0
 13  6  1  0
 14  5  1  0
 15  7  1  0
 11 10  2  0
M  END
>  <ID>  (2516) 


>  <MOLENAME>  (2516) 
TOCAINIDE HYDROCHLORIDE

>  <therap>  (2516) 
anti-arrhythmic

>  <ref>  (2516) 
J Med Chem 43:3792 (2000)

>  <cas#>  (2516) 
41708-72-9

>  <source>  (2516) 
synthetic

>  <status>  (2516) 
USP

>  <tradename>  (2516) 
nan

>  <SMILES>  (2516) 
Cc1cccc(C)c1NC(=O)C(C)N

>  <standardized_failed>  (2516) 
False

$$$$

     RDKit          2D

 18 18  0  0  0  0  0  0  0  0999 V2000
    6.3292    1.2500    0.0000 S   0  0  0  0  0  0  0  0  0  0  0  0
    3.3542    0.1875    0.0000 N   0  0  0  0  0  0  0  0  0  0  0  0
    4.0792    0.5958    0.0000 C   0  0  0  0  0  0  0  0  0  0  0  0
    2.6375    0.6083    0.0000 C   0  0  0  0  0  0  0  0  0  0  0  0
    1.9167    0.1875    0.0000 C   0  0  0  0  0  0  0  0  0  0  0  0
    4.0792    1.4208    0.0000 N   0  0  0  0  0  0  0  0  0  0  0  0
    5.7542    1.5833    0.0000 O   0  0  0  0  0  0  0  0  0  0  0  0
    6.9000    1.5833    0.0000 O   0  0  0  0  0  0  0  0  0  0  0  0
    3.3542   -0.6417    0.0000 C   0  0  0  0  0  0  0  0  0  0  0  0
    1.9167   -0.6417    0.0000 C   0  0  0  0  0  0  0  0  0  0  0  0
    6.7917    0.7833    0.0000 O   0  0  0  0  0  0  0  0  0  0  0  0
    5.8542    0.7833    0.0000 O   0  0  0  0  0  0  0  0  0  0  0  0
    2.6292   -1.0542    0.0000 C   0  0  0  0  0  0  0  0  0  0  0  0
    4.7917    0.1833    0.0000 N   0  0  0  0  0  0  0  0  0  0  0  0
    1.2042    0.6000    0.0000 C   0  0  0  0  0  0  0  0  0  0  0  0
    1.2042   -1.0542    0.0000 C   0  0  0  0  0  0  0  0  0  0  0  0
    0.4917    0.1875    0.0000 C   0  0  0  0  0  0  0  0  0  0  0  0
    0.4917   -0.6417    0.0000 C   0  0  0  0  0  0  0  0  0  0  0  0
  3  2  1  0
  4  2  1  0
  5  4  1  0
  6  3  2  0
  7  1  2  0
  8  1  2  0
  9  2  1  0
 10 13  1  0
 11  1  1  0
 12  1  1  0
 13  9  1  0
 14  3  1  0
 15  5  2  0
 16 10  2  0
 17 15  1  0
 18 16  1  0
  5 10  1  0
 17 18  2  0
M  END
>  <ID>  (2517) 


>  <MOLENAME>  (2517) 
DEBRISOQUIN SULFATE

>  <therap>  (2517) 
anti-hypertensive

>  <ref>  (2517) 
Biochem Pharmacol 18:891 (1969); Toxicol Appl Pharmacol 18:185 (1971)

>  <cas#>  (2517) 
581-88-4

>  <source>  (2517) 
synthetic; RO-5-3307/1; 10% aqueous DMSO

>  <status>  (2517) 
USAN, INN, BAN

>  <tradename>  (2517) 
DECLINAX

>  <SMILES>  (2517) 
N=C(N)N1CCc2ccccc2C1

>  <standardized_failed>  (2517) 
False

$$$$

     RDKit          2D

 24 24  0  0  0  0  0  0  0  0999 V2000
    1.6167   -5.8042    0.0000 S   0  0  0  0  0  0  0  0  0  0  0  0
    5.7375   -5.5667    0.0000 C   0  0  0  0  0  0  0  0  0  0  0  0
    6.1500   -6.2750    0.0000 C   0  0  0  0  0  0  0  0  0  0  0  0
    4.9125   -4.1417    0.0000 N   0  0  0  0  0  0  0  0  0  0  0  0
    3.6500   -4.5625    0.0000 N   0  0  0  0  0  0  0  0  0  0  0  0
    6.1500   -4.8542    0.0000 C   0  0  0  0  0  0  0  0  0  0  0  0
    4.4292   -4.8125    0.0000 C   0  0  0  0  0  0  0  0  0  0  0  0
    5.7417   -6.9917    0.0000 C   0  0  0  0  0  0  0  0  0  0  0  0
    4.9125   -5.5625    0.0000 C   0  0  0  0  0  0  0  0  0  0  0  0
    1.6167   -4.9792    0.0000 O   0  0  0  0  0  0  0  0  0  0  0  0
    1.6167   -6.6292    0.0000 O   0  0  0  0  0  0  0  0  0  0  0  0
    5.7375   -4.1417    0.0000 C   0  0  0  0  0  0  0  0  0  0  0  0
    3.6500   -3.7375    0.0000 C   0  0  0  0  0  0  0  0  0  0  0  0
    4.4292   -3.4792    0.0000 C   0  0  0  0  0  0  0  0  0  0  0  0
    0.7917   -5.8042    0.0000 O   0  0  0  0  0  0  0  0  0  0  0  0
    2.4417   -5.8042    0.0000 O   0  0  0  0  0  0  0  0  0  0  0  0
    4.9125   -6.9917    0.0000 C   0  0  0  0  0  0  0  0  0  0  0  0
    8.2000   -5.5667    0.0000 C   0  0  0  0  0  0  0  0  0  0  0  0
    6.9750   -6.2667    0.0000 Cl  0  0  0  0  0  0  0  0  0  0  0  0
    8.6125   -6.2792    0.0000 C   0  0  0  0  0  0  0  0  0  0  0  0
    4.5000   -6.2792    0.0000 C   0  0  0  0  0  0  0  0  0  0  0  0
    6.9667   -4.8542    0.0000 O   0  0  0  0  0  0  0  0  0  0  0  0
    4.5000   -7.7042    0.0000 Cl  0  0  0  0  0  0  0  0  0  0  0  0
    7.3792   -5.5667    0.0000 C   0  0  0  0  0  0  0  0  0  0  0  0
  3  2  2  0
  4 12  1  0
  5  7  2  0
  6  2  1  0
  7  4  1  0
  8  3  1  0
  9  2  1  0
 10  1  2  0
 11  1  2  0
 12  6  1  0
 13 14  2  0
 14  4  1  0
 15  1  1  0
 16  1  1  0
 17  8  2  0
 18 24  1  0
 19  3  1  0
 20 18  2  0
 21  9  2  0
 22  6  1  0
 23 17  1  0
 24 22  1  0
 21 17  1  0
 13  5  1  0
M  END
>  <ID>  (2518) 


>  <MOLENAME>  (2518) 
ENILCONAZOLE SULFATE

>  <therap>  (2518) 
antifungal

>  <ref>  (2518) 
Arzneim Forsch 31:309 (1981)

>  <cas#>  (2518) 
35554-44-0

>  <source>  (2518) 
synthetic; R-23979

>  <status>  (2518) 
USAN, INN, BAN

>  <tradename>  (2518) 
CLINAFARM

>  <SMILES>  (2518) 
C=CCOC(Cn1ccnc1)c1c(Cl)cc(Cl)cc1

>  <standardized_failed>  (2518) 
False

$$$$

     RDKit          2D

 16 17  0  0  0  0  0  0  0  0999 V2000
    7.1375   -3.6542    0.0000 C   0  0  0  0  0  0  0  0  0  0  0  0
    6.4167   -3.2375    0.0000 O   0  0  0  0  0  0  0  0  0  0  0  0
    7.8542   -3.2417    0.0000 C   0  0  0  0  0  0  0  0  0  0  0  0
    7.9375   -2.4250    0.0000 N   0  0  0  0  0  0  0  0  0  0  0  0
    6.4167   -4.8917    0.0000 O   0  0  0  0  0  0  0  0  0  0  0  0
    5.7042   -3.6542    0.0000 C   0  0  0  0  0  0  0  0  0  0  0  0
    8.6042   -3.5792    0.0000 N   0  0  0  0  0  0  0  0  0  0  0  0
    7.1375   -4.4792    0.0000 C   0  0  0  0  0  0  0  0  0  0  0  0
    5.7042   -4.4792    0.0000 C   0  0  0  0  0  0  0  0  0  0  0  0
    8.6375   -4.7417    0.0000 Cl  0  0  0  0  0  0  0  0  0  0  0  0
    8.7417   -2.2542    0.0000 C   0  0  0  0  0  0  0  0  0  0  0  0
    9.1542   -2.9667    0.0000 C   0  0  0  0  0  0  0  0  0  0  0  0
    4.9917   -3.2417    0.0000 C   0  0  0  0  0  0  0  0  0  0  0  0
    4.9917   -4.8917    0.0000 C   0  0  0  0  0  0  0  0  0  0  0  0
    4.2792   -3.6542    0.0000 C   0  0  0  0  0  0  0  0  0  0  0  0
    4.2792   -4.4792    0.0000 C   0  0  0  0  0  0  0  0  0  0  0  0
  2  1  1  0
  3  1  1  0
  4  3  2  0
  5  8  1  0
  6  2  1  0
  7  3  1  0
  8  1  1  0
  9  5  1  0
 11  4  1  0
 12  7  1  0
 13  6  2  0
 14  9  2  0
 15 13  1  0
 16 14  1  0
  6  9  1  0
 12 11  1  0
 15 16  2  0
M  END
>  <ID>  (2519) 


>  <MOLENAME>  (2519) 
IDAZOXAN HYDROCHLORIDE

>  <therap>  (2519) 
alpha2-adrenergic blocker

>  <ref>  (2519) 
Ann NY Acad Sci 881:272 (1999); CNS Drug Reviews 8(:177 (2002)

>  <cas#>  (2519) 
79944-58-4

>  <source>  (2519) 
synthetic

>  <status>  (2519) 
INN, BAN

>  <tradename>  (2519) 
nan

>  <SMILES>  (2519) 
c1ccc2OC(C3=NCCN3)COc2c1

>  <standardized_failed>  (2519) 
False

$$$$

     RDKit          2D

 21 20  0  0  0  0  0  0  0  0999 V2000
    6.1417   -2.0542    0.0000 C   0  0  0  0  0  0  0  0  0  0  0  0
    4.7125   -2.0542    0.0000 C   0  0  0  0  0  0  0  0  0  0  0  0
    5.4250   -1.6417    0.0000 C   0  0  0  0  0  0  0  0  0  0  0  0
    6.1417   -2.8875    0.0000 C   0  0  0  0  0  0  0  0  0  0  0  0
    4.7125   -2.8875    0.0000 C   0  0  0  0  0  0  0  0  0  0  0  0
    5.4250   -3.3000    0.0000 C   0  0  0  0  0  0  0  0  0  0  0  0
    4.0000   -1.6500    0.0000 O   0  0  0  0  0  0  0  0  0  0  0  0
    3.2792   -2.0625    0.0000 C   0  0  0  0  0  0  0  0  0  0  0  0
    2.5667   -1.6500    0.0000 O   0  0  0  0  0  0  0  0  0  0  0  0
    6.8542   -1.6417    0.0000 C   0  0  0  0  0  0  0  0  0  0  0  0
    6.8542   -3.2917    0.0000 O   0  0  0  0  0  0  0  0  0  0  0  0
    8.9917   -2.8792    0.0000 N   0  0  0  0  0  0  0  0  0  0  0  0
    9.7125   -4.2125    0.0000 Cl  0  0  0  0  0  0  0  0  0  0  0  0
    7.5667   -2.8792    0.0000 C   0  0  0  0  0  0  0  0  0  0  0  0
    3.9917   -3.3000    0.0000 C   0  0  0  0  0  0  0  0  0  0  0  0
    3.2792   -2.8875    0.0000 C   0  0  0  0  0  0  0  0  0  0  0  0
    8.2792   -3.2917    0.0000 C   0  0  0  0  0  0  0  0  0  0  0  0
    8.9875   -2.0542    0.0000 C   0  0  0  0  0  0  0  0  0  0  0  0
    9.7042   -3.2875    0.0000 C   0  0  0  0  0  0  0  0  0  0  0  0
    6.8500   -0.8167    0.0000 C   0  0  0  0  0  0  0  0  0  0  0  0
    7.5667   -2.0500    0.0000 C   0  0  0  0  0  0  0  0  0  0  0  0
  2  3  1  0
  3  1  2  0
  4  1  1  0
  5  6  1  0
  6  4  2  0
  7  2  1  0
  8  7  1  0
  9  8  2  0
 10  1  1  0
 11  4  1  0
 12 17  1  0
 14 11  1  0
 15  5  1  0
 16  8  1  0
 17 14  1  0
 18 12  1  0
 19 12  1  0
 20 10  1  0
 21 10  1  0
  2  5  2  0
M  END
>  <ID>  (2520) 


>  <MOLENAME>  (2520) 
MOXISYLYTE HYDROCHLORIDE

>  <therap>  (2520) 
alpha-adrenergic blocker

>  <ref>  (2520) 
J Auton Nerv Syst 79: 191 (2000); hepatotoxic at clinical dose (480mg)

>  <cas#>  (2520) 
54-32-0

>  <source>  (2520) 
synthetic

>  <status>  (2520) 
INN, BAN, JAN

>  <tradename>  (2520) 
nan

>  <SMILES>  (2520) 
CC(=O)Oc1c(C)cc(OCCN(C)C)c(C(C)C)c1

>  <standardized_failed>  (2520) 
False

$$$$

     RDKit          2D

 23 24  0  0  0  0  0  0  0  0999 V2000
    4.1375   -0.6167    0.0000 C   0  0  0  0  0  0  0  0  0  0  0  0
    4.1375    0.2083    0.0000 C   0  0  0  0  0  0  0  0  0  0  0  0
    3.4167   -1.0292    0.0000 C   0  0  0  0  0  0  0  0  0  0  0  0
    3.4167    0.6208    0.0000 C   0  0  0  0  0  0  0  0  0  0  0  0
    2.7042    0.2083    0.0000 C   0  0  0  0  0  0  0  0  0  0  0  0
    2.7042   -0.6167    0.0000 C   0  0  0  0  0  0  0  0  0  0  0  0
    4.8542   -1.0417    0.0000 C   0  0  0  0  0  0  0  0  0  0  0  0
    4.8542   -1.8667    0.0000 C   0  0  0  0  0  0  0  0  0  0  0  0
    3.4167   -1.8542    0.0000 O   0  0  0  0  0  0  0  0  0  0  0  0
    3.4167    1.4458    0.0000 O   0  0  0  0  0  0  0  0  0  0  0  0
    5.5667   -2.2792    0.0000 C   0  0  0  0  0  0  0  0  0  0  0  0
    6.9917    0.1958    0.0000 C   0  0  0  0  0  0  0  0  0  0  0  0
    6.9917   -0.6292    0.0000 C   0  0  0  0  0  0  0  0  0  0  0  0
    4.8542    0.6208    0.0000 C   0  0  0  0  0  0  0  0  0  0  0  0
    6.2792   -1.0417    0.0000 C   0  0  0  0  0  0  0  0  0  0  0  0
    1.9917    0.6208    0.0000 C   0  0  0  0  0  0  0  0  0  0  0  0
    1.9917   -1.0292    0.0000 C   0  0  0  0  0  0  0  0  0  0  0  0
    6.2792   -1.8667    0.0000 C   0  0  0  0  0  0  0  0  0  0  0  0
    5.5667   -3.1125    0.0000 C   0  0  0  0  0  0  0  0  0  0  0  0
    6.2792    0.6083    0.0000 C   0  0  0  0  0  0  0  0  0  0  0  0
    7.7042    0.6083    0.0000 C   0  0  0  0  0  0  0  0  0  0  0  0
    1.2792   -0.6167    0.0000 C   0  0  0  0  0  0  0  0  0  0  0  0
    1.2792    0.2000    0.0000 C   0  0  0  0  0  0  0  0  0  0  0  0
  2  1  2  0
  3  1  1  0
  4  2  1  0
  5  6  2  0
  6  3  1  0
  7  1  1  0
  8  7  1  0
  9  3  2  0
 10  4  2  0
 11  8  2  0
 12 13  2  0
 13 15  1  0
 14  2  1  0
 15 18  1  0
 16  5  1  0
 17  6  1  0
 18 11  1  0
 19 11  1  0
 20 12  1  0
 21 12  1  0
 22 17  2  0
 23 16  2  0
  4  5  1  0
 23 22  1  0
M  END
>  <ID>  (2521) 


>  <MOLENAME>  (2521) 
MENAQUINONE-4

>  <therap>  (2521) 
antioxidant, alkaline phosphatase enhancer

>  <ref>  (2521) 
Biochem J 162:297 (1977); J Vasc Res 40:531 (2003)

>  <cas#>  (2521) 
nan

>  <source>  (2521) 
synthetic; VITAMIN K2

>  <status>  (2521) 
experimental

>  <tradename>  (2521) 
nan

>  <SMILES>  (2521) 
CC(C)=CCC/C(C)=C\CC1=C(C)C(=O)c2c(cccc2)C1=O

>  <standardized_failed>  (2521) 
False

$$$$

     RDKit          2D

  4  3  0  0  0  0  0  0  0  0999 V2000
    3.5167   -1.2417    0.0000 S   0  0  0  0  0  0  0  0  0  0  0  0
    3.5167   -0.4167    0.0000 O   0  0  0  0  0  0  0  0  0  0  0  0
    4.2292   -1.6542    0.0000 C   0  0  0  0  0  0  0  0  0  0  0  0
    2.8042   -1.6542    0.0000 C   0  0  0  0  0  0  0  0  0  0  0  0
  2  1  2  0
  3  1  1  0
  4  1  1  0
M  END
>  <ID>  (2522) 


>  <MOLENAME>  (2522) 
DIMETHYL SULFOXIDE

>  <therap>  (2522) 
analgesic, antiinflammatory (topical)

>  <ref>  (2522) 
Urology 11:215 (1978); Neurobiology of Disease 34:1 (2008)

>  <cas#>  (2522) 
67-68-5

>  <source>  (2522) 
synthetic; SQ-9453, NSC-763

>  <status>  (2522) 
USP

>  <tradename>  (2522) 
RIMSO-50

>  <SMILES>  (2522) 
C[S+](C)[O-]

>  <standardized_failed>  (2522) 
False

$$$$

     RDKit          2D

 14 13  0  0  0  0  0  0  0  0999 V2000
    3.3917   -1.4917    0.0000 C   0  0  0  0  0  0  0  0  0  0  0  0
    2.6792   -1.0792    0.0000 C   0  0  0  0  0  0  0  0  0  0  0  0
    1.9667   -1.5000    0.0000 C   0  0  0  0  0  0  0  0  0  0  0  0
    4.1042   -1.0792    0.0000 C   0  0  0  0  0  0  0  0  0  0  0  0
    1.9667   -2.3250    0.0000 C   0  0  0  0  0  0  0  0  0  0  0  0
    3.3917   -2.3250    0.0000 C   0  0  0  0  0  0  0  0  0  0  0  0
    4.1042   -0.2542    0.0000 O   0  0  0  0  0  0  0  0  0  0  0  0
    2.6792   -2.7375    0.0000 C   0  0  0  0  0  0  0  0  0  0  0  0
    1.2542   -1.0875    0.0000 O   0  0  0  0  0  0  0  0  0  0  0  0
    5.5292   -1.0792    0.0000 N   0  0  0  0  0  0  0  0  0  0  0  0
    1.2500   -2.7375    0.0000 O   0  0  0  0  0  0  0  0  0  0  0  0
    5.0917   -2.6167    0.0000 Cl  0  0  0  0  0  0  0  0  0  0  0  0
    4.8167   -1.4917    0.0000 C   0  0  0  0  0  0  0  0  0  0  0  0
    6.2417   -1.4875    0.0000 C   0  0  0  0  0  0  0  0  0  0  0  0
  2  1  2  0
  3  2  1  0
  4  1  1  0
  5  8  1  0
  6  1  1  0
  7  4  2  0
  8  6  2  0
  9  3  1  0
 10 13  1  0
 11  5  1  0
 13  4  1  0
 14 10  1  0
  3  5  2  0
M  END
>  <ID>  (2523) 


>  <MOLENAME>  (2523) 
ADRENALONE HYDROCHLORIDE

>  <therap>  (2523) 
adrenergic (opthalmic)

>  <ref>  (2523) 
Int J Pharmaceut 1:189 (1978) 

>  <cas#>  (2523) 
62-13-5

>  <source>  (2523) 
synthetic

>  <status>  (2523) 
USAN, INN

>  <tradename>  (2523) 
STRYPHNASAL

>  <SMILES>  (2523) 
CNCC(=O)c1cc(O)c(O)cc1

>  <standardized_failed>  (2523) 
False

$$$$

     RDKit          2D

 12 10  0  0  0  0  0  0  0  0999 V2000
    2.1125   -1.7792    0.0000 P   0  0  0  0  0  0  0  0  0  0  0  0
    4.2500   -2.1917    0.0000 C   0  0  0  0  0  0  0  0  0  0  0  0
    4.9625   -1.7792    0.0000 C   0  0  0  0  0  0  0  0  0  0  0  0
    3.5375   -1.7792    0.0000 C   0  0  0  0  0  0  0  0  0  0  0  0
    2.8250   -2.1917    0.0000 O   0  0  0  0  0  0  0  0  0  0  0  0
    2.1125   -0.9542    0.0000 O   0  0  0  0  0  0  0  0  0  0  0  0
    4.9625   -0.9542    0.0000 O   0  0  0  0  0  0  0  0  0  0  0  0
    1.3917   -1.3667    0.0000 O   0  0  0  0  0  0  0  0  0  0  0  0
    1.4000   -2.1917    0.0000 O   0  0  0  0  0  0  0  0  0  0  0  0
    4.2417   -3.0167    0.0000 N   0  0  0  0  0  0  0  0  0  0  0  0
    5.6750   -2.1917    0.0000 O   0  0  0  0  0  0  0  0  0  0  0  0
    4.4542   -3.9000    0.0000 Cl  0  0  0  0  0  0  0  0  0  0  0  0
  2  4  1  0
  3  2  1  0
  4  5  1  0
  5  1  1  0
  6  1  2  0
  7  3  2  0
  8  1  1  0
  9  1  1  0
  2 10  1  1
 11  3  1  0
M  END
>  <ID>  (2524) 


>  <MOLENAME>  (2524) 
DEXFOSFOSERINE HYDROCHLORIDE

>  <therap>  (2524) 
roborant

>  <ref>  (2524) 
Plant Physiol. (1977), 60(1), 109-14; Pharmacology (1976), 14(1), 52-7

>  <cas#>  (2524) 
407-41-0

>  <source>  (2524) 
synthetic

>  <status>  (2524) 
INN

>  <tradename>  (2524) 
nan

>  <SMILES>  (2524) 
N[C@@H](COP(=O)(O)O)C(=O)O

>  <standardized_failed>  (2524) 
False

$$$$

     RDKit          2D

 21 20  0  0  0  0  0  0  0  0999 V2000
    8.5917   -1.4292    0.0000 C   0  0  0  0  0  0  0  0  0  0  0  0
    8.5875   -0.6042    0.0000 O   0  0  0  0  0  0  0  0  0  0  0  0
    9.3042   -1.8375    0.0000 N   0  0  0  0  0  0  0  0  0  0  0  0
    8.5875   -3.8917    0.0000 O   0  0  0  0  0  0  0  0  0  0  0  0
    7.8792   -1.8417    0.0000 C   0  0  0  0  0  0  0  0  0  0  0  0
    9.3042   -2.6542    0.0000 C   0  0  0  0  0  0  0  0  0  0  0  0
    8.5917   -3.0667    0.0000 C   0  0  0  0  0  0  0  0  0  0  0  0
    7.1667   -1.4292    0.0000 C   0  0  0  0  0  0  0  0  0  0  0  0
   -1.3833   -1.4292    0.0000 C   0  0  0  0  0  0  0  0  0  0  0  0
   -0.6708   -1.8417    0.0000 C   0  0  0  0  0  0  0  0  0  0  0  0
    5.7417   -1.4292    0.0000 C   0  0  0  0  0  0  0  0  0  0  0  0
    6.4542   -1.8417    0.0000 C   0  0  0  0  0  0  0  0  0  0  0  0
    0.0417   -1.4292    0.0000 C   0  0  0  0  0  0  0  0  0  0  0  0
    0.7542   -1.8417    0.0000 C   0  0  0  0  0  0  0  0  0  0  0  0
    1.4667   -1.4292    0.0000 C   0  0  0  0  0  0  0  0  0  0  0  0
    2.1792   -1.8417    0.0000 C   0  0  0  0  0  0  0  0  0  0  0  0
    2.8917   -1.4292    0.0000 C   0  0  0  0  0  0  0  0  0  0  0  0
    3.6042   -1.8417    0.0000 C   0  0  0  0  0  0  0  0  0  0  0  0
    4.3167   -1.4292    0.0000 C   0  0  0  0  0  0  0  0  0  0  0  0
    5.0292   -1.8417    0.0000 C   0  0  0  0  0  0  0  0  0  0  0  0
   -2.0958   -1.8417    0.0000 C   0  0  0  0  0  0  0  0  0  0  0  0
  2  1  2  0
  3  1  1  0
  4  7  1  0
  5  1  1  0
  6  3  1  0
  7  6  1  0
  8  5  1  0
  9 10  1  0
 10 13  1  0
 11 12  1  0
 12  8  1  0
 13 14  1  0
 14 15  1  0
 15 16  1  0
 16 17  1  0
 17 18  1  0
 18 19  1  0
 19 20  1  0
 20 11  1  0
 21  9  1  0
M  END
>  <ID>  (2525) 


>  <MOLENAME>  (2525) 
PALMIDROL [5mM]

>  <therap>  (2525) 
antiinflammatory

>  <ref>  (2525) 
Science 258:1946 (1992). 

>  <cas#>  (2525) 
544-31-0

>  <source>  (2525) 
Glycine max

>  <status>  (2525) 
INN

>  <tradename>  (2525) 
nan

>  <SMILES>  (2525) 
CCCCCCCCCCCCCCCC(=O)NCCO

>  <standardized_failed>  (2525) 
False

$$$$

     RDKit          2D

 23 24  0  0  0  0  0  0  0  0999 V2000
    4.8750   -1.9542    0.0000 C   0  0  0  0  0  0  0  0  0  0  0  0
    1.3042   -3.2000    0.0000 C   0  0  0  0  0  0  0  0  0  0  0  0
    5.5875   -2.3542    0.0000 N   0  0  0  0  0  0  0  0  0  0  0  0
    1.3042   -2.3750    0.0000 C   0  0  0  0  0  0  0  0  0  0  0  0
    2.0167   -3.6125    0.0000 C   0  0  0  0  0  0  0  0  0  0  0  0
    4.1625   -2.3667    0.0000 C   0  0  0  0  0  0  0  0  0  0  0  0
    3.4500   -1.9542    0.0000 C   0  0  0  0  0  0  0  0  0  0  0  0
    2.7375   -2.3667    0.0000 C   0  0  0  0  0  0  0  0  0  0  0  0
    2.7375   -3.2000    0.0000 C   0  0  0  0  0  0  0  0  0  0  0  0
    2.0167   -1.9542    0.0000 C   0  0  0  0  0  0  0  0  0  0  0  0
    4.8667   -1.1292    0.0000 O   0  0  0  0  0  0  0  0  0  0  0  0
    0.5917   -3.6125    0.0000 O   0  0  0  0  0  0  0  0  0  0  0  0
    0.5917   -1.9625    0.0000 O   0  0  0  0  0  0  0  0  0  0  0  0
    2.0167   -4.4375    0.0000 O   0  0  0  0  0  0  0  0  0  0  0  0
    6.3000   -1.9500    0.0000 C   0  0  0  0  0  0  0  0  0  0  0  0
    5.4042   -3.0250    0.0000 C   0  0  0  0  0  0  0  0  0  0  0  0
    0.5917   -4.4375    0.0000 C   0  0  0  0  0  0  0  0  0  0  0  0
    0.5917   -1.1375    0.0000 C   0  0  0  0  0  0  0  0  0  0  0  0
    2.7375   -4.8500    0.0000 C   0  0  0  0  0  0  0  0  0  0  0  0
    5.9167   -3.6417    0.0000 C   0  0  0  0  0  0  0  0  0  0  0  0
    6.9792   -2.1500    0.0000 C   0  0  0  0  0  0  0  0  0  0  0  0
    7.2417   -2.9042    0.0000 C   0  0  0  0  0  0  0  0  0  0  0  0
    6.7542   -3.6042    0.0000 C   0  0  0  0  0  0  0  0  0  0  0  0
  2  4  2  0
  3  1  1  0
  4 10  1  0
  5  9  2  0
  6  1  1  0
  7  6  2  0
  8  7  1  0
  9  8  1  0
 10  8  2  0
 11  1  2  0
 12  2  1  0
 13  4  1  0
 14  5  1  0
 15  3  1  0
 16  3  1  0
 17 12  1  0
 18 13  1  0
 19 14  1  0
 20 16  1  0
 21 15  1  0
 22 21  1  0
 23 20  1  0
 23 22  1  0
  5  2  1  0
M  END
>  <ID>  (2526) 


>  <MOLENAME>  (2526) 
CINOCTRAMIDE

>  <therap>  (2526) 
anesthetic

>  <ref>  (2526) 
Fr. (1969), FR 1581285 19690912

>  <cas#>  (2526) 
28598-08-5

>  <source>  (2526) 
synthetic

>  <status>  (2526) 
INN

>  <tradename>  (2526) 
nan

>  <SMILES>  (2526) 
COc1c(OC)c(OC)cc(/C=C/C(=O)N2CCCCCC2)c1

>  <standardized_failed>  (2526) 
False

$$$$

     RDKit          2D

 55 58  0  0  0  0  0  0  0  0999 V2000
    6.1167    1.9958    0.0000 S   0  0  0  0  0  0  0  0  0  0  0  0
    5.4042    1.5708    0.0000 C   0  0  0  0  0  0  0  0  0  0  0  0
    6.8375    1.5833    0.0000 C   0  0  0  0  0  0  0  0  0  0  0  0
    6.8292    2.4083    0.0000 O   0  0  0  0  0  0  0  0  0  0  0  0
    5.4042    2.3958    0.0000 O   0  0  0  0  0  0  0  0  0  0  0  0
    2.4375    0.3333    0.0000 C   0  0  0  0  0  0  0  0  0  0  0  0
    9.8042    0.3583    0.0000 C   0  0  0  0  0  0  0  0  0  0  0  0
    8.9792    0.3583    0.0000 N   0  0  0  0  0  0  0  0  0  0  0  0
    3.2625    0.3333    0.0000 N   0  0  0  0  0  0  0  0  0  0  0  0
    2.0250    1.0458    0.0000 O   0  0  0  0  0  0  0  0  0  0  0  0
   10.2167    1.0708    0.0000 O   0  0  0  0  0  0  0  0  0  0  0  0
    6.8375    0.7583    0.0000 C   0  0  0  0  0  0  0  0  0  0  0  0
    7.5375    1.9958    0.0000 C   0  0  0  0  0  0  0  0  0  0  0  0
    4.6875    1.9833    0.0000 C   0  0  0  0  0  0  0  0  0  0  0  0
    5.4042    0.7458    0.0000 C   0  0  0  0  0  0  0  0  0  0  0  0
   12.2792   -5.4292    0.0000 C   0  0  0  0  0  0  0  0  0  0  0  0
   -0.0458   -5.4542    0.0000 C   0  0  0  0  0  0  0  0  0  0  0  0
   -0.2125   -6.2667    0.0000 C   0  0  0  0  0  0  0  0  0  0  0  0
   12.4542   -6.2417    0.0000 C   0  0  0  0  0  0  0  0  0  0  0  0
    8.2667    0.7708    0.0000 C   0  0  0  0  0  0  0  0  0  0  0  0
    3.9750    0.7458    0.0000 C   0  0  0  0  0  0  0  0  0  0  0  0
    7.5500    0.3458    0.0000 C   0  0  0  0  0  0  0  0  0  0  0  0
    8.2542    1.5958    0.0000 C   0  0  0  0  0  0  0  0  0  0  0  0
    4.6875    0.3333    0.0000 C   0  0  0  0  0  0  0  0  0  0  0  0
    3.9750    1.5708    0.0000 C   0  0  0  0  0  0  0  0  0  0  0  0
   11.4667   -5.3417    0.0000 C   0  0  0  0  0  0  0  0  0  0  0  0
    0.7792   -5.3667    0.0000 C   0  0  0  0  0  0  0  0  0  0  0  0
   10.2167   -0.3542    0.0000 C   0  0  0  0  0  0  0  0  0  0  0  0
    2.0250   -0.3792    0.0000 C   0  0  0  0  0  0  0  0  0  0  0  0
    0.5000   -6.6792    0.0000 C   0  0  0  0  0  0  0  0  0  0  0  0
   11.7417   -6.6542    0.0000 C   0  0  0  0  0  0  0  0  0  0  0  0
    1.1917   -4.6542    0.0000 C   0  0  0  0  0  0  0  0  0  0  0  0
   11.0542   -4.6292    0.0000 C   0  0  0  0  0  0  0  0  0  0  0  0
   11.1292   -6.1042    0.0000 C   0  0  0  0  0  0  0  0  0  0  0  0
    1.1125   -6.1292    0.0000 C   0  0  0  0  0  0  0  0  0  0  0  0
    1.2042   -0.3792    0.0000 C   0  0  0  0  0  0  0  0  0  0  0  0
   11.0292   -0.3542    0.0000 C   0  0  0  0  0  0  0  0  0  0  0  0
   10.2292   -4.6292    0.0000 C   0  0  0  0  0  0  0  0  0  0  0  0
    2.0083   -4.6542    0.0000 C   0  0  0  0  0  0  0  0  0  0  0  0
   10.2250   -3.2042    0.0000 C   0  0  0  0  0  0  0  0  0  0  0  0
    2.4250   -3.9417    0.0000 C   0  0  0  0  0  0  0  0  0  0  0  0
   11.4500   -1.0667    0.0000 C   0  0  0  0  0  0  0  0  0  0  0  0
   12.2750   -1.0667    0.0000 C   0  0  0  0  0  0  0  0  0  0  0  0
   12.6875   -1.7792    0.0000 C   0  0  0  0  0  0  0  0  0  0  0  0
   12.2750   -2.4917    0.0000 C   0  0  0  0  0  0  0  0  0  0  0  0
   11.4542   -2.4917    0.0000 C   0  0  0  0  0  0  0  0  0  0  0  0
   11.0500   -3.2042    0.0000 C   0  0  0  0  0  0  0  0  0  0  0  0
    9.8167   -3.9167    0.0000 C   0  0  0  0  0  0  0  0  0  0  0  0
    0.7917   -1.0917    0.0000 C   0  0  0  0  0  0  0  0  0  0  0  0
   -0.0250   -1.0917    0.0000 C   0  0  0  0  0  0  0  0  0  0  0  0
   -0.4375   -1.8042    0.0000 C   0  0  0  0  0  0  0  0  0  0  0  0
   -0.0333   -2.5167    0.0000 C   0  0  0  0  0  0  0  0  0  0  0  0
    0.7875   -2.5167    0.0000 C   0  0  0  0  0  0  0  0  0  0  0  0
    1.2000   -3.2292    0.0000 C   0  0  0  0  0  0  0  0  0  0  0  0
    2.0167   -3.2292    0.0000 C   0  0  0  0  0  0  0  0  0  0  0  0
  2  1  1  0
  3  1  1  0
  4  1  2  0
  5  1  2  0
  6  9  1  0
  7  8  1  0
  8 20  1  0
  9 21  1  0
 10  6  2  0
 11  7  2  0
 12  3  2  0
 13  3  1  0
 14  2  2  0
 15  2  1  0
 16 26  1  0
 17 27  1  0
 18 17  2  0
 19 16  2  0
 20 23  1  0
 21 24  1  0
 22 12  1  0
 23 13  2  0
 24 15  2  0
 25 14  1  0
 26 33  1  0
 27 32  1  0
 28  7  1  0
 29  6  1  0
 30 35  1  0
 31 34  1  0
 32 39  1  0
 33 38  1  0
 34 26  1  0
 35 27  1  0
 36 29  1  0
 37 28  1  0
 38 48  1  0
 39 41  1  0
 40 47  1  0
 41 55  1  0
 42 37  1  0
 43 42  1  0
 44 43  1  0
 45 44  1  0
 46 45  1  0
 47 46  1  0
 48 40  1  0
 49 36  1  0
 50 49  1  0
 51 50  1  0
 52 51  1  0
 53 52  1  0
 54 53  1  0
 55 54  1  0
 22 20  2  0
 25 21  2  0
 19 31  1  0
 18 30  1  0
M  END
>  <ID>  (2527) 


>  <MOLENAME>  (2527) 
CHAULMOSULFONE

>  <therap>  (2527) 
antilepretic

>  <ref>  (2527) 
nan

>  <cas#>  (2527) 
473-32-5

>  <source>  (2527) 
synthetic

>  <status>  (2527) 
INN

>  <tradename>  (2527) 
nan

>  <SMILES>  (2527) 
O=C(CCCCCCCCCCCCC1C=CCC1)Nc1ccc(S(=O)(=O)c2ccc(NC(=O)CCCCCCCCCCCCC3C=CCC3)cc2)cc1

>  <standardized_failed>  (2527) 
False

$$$$

     RDKit          2D

 33 37  0  0  0  0  0  0  0  0999 V2000
    7.4292   -6.3042    0.0000 C   0  0  0  0  0  0  0  0  0  0  0  0
    7.4292   -7.0625    0.0000 C   0  0  0  0  0  0  0  0  0  0  0  0
    6.7792   -7.4375    0.0000 C   0  0  0  0  0  0  0  0  0  0  0  0
    8.0792   -5.9292    0.0000 C   0  0  0  0  0  0  0  0  0  0  0  0
    5.4667   -7.4375    0.0000 C   0  0  0  0  0  0  0  0  0  0  0  0
    8.7375   -6.3042    0.0000 C   0  0  0  0  0  0  0  0  0  0  0  0
    6.1250   -7.0625    0.0000 C   0  0  0  0  0  0  0  0  0  0  0  0
    5.4667   -8.1917    0.0000 C   0  0  0  0  0  0  0  0  0  0  0  0
    6.7792   -5.9292    0.0000 C   0  0  0  0  0  0  0  0  0  0  0  0
    4.8167   -8.5667    0.0000 C   0  0  0  0  0  0  0  0  0  0  0  0
    9.2542   -6.6625    0.0000 C   0  0  0  0  0  0  0  0  0  0  0  0
    8.0792   -5.1750    0.0000 C   0  0  0  0  0  0  0  0  0  0  0  0
    8.0792   -7.4375    0.0000 C   0  0  0  0  0  0  0  0  0  0  0  0
    6.7792   -8.1917    0.0000 C   0  0  0  0  0  0  0  0  0  0  0  0
    6.1250   -6.3042    0.0000 C   0  0  0  0  0  0  0  0  0  0  0  0
    8.7375   -7.0625    0.0000 C   0  0  0  0  0  0  0  0  0  0  0  0
    4.8167   -7.0625    0.0000 C   0  0  0  0  0  0  0  0  0  0  0  0
    6.1250   -8.5667    0.0000 C   0  0  0  0  0  0  0  0  0  0  0  0
    9.3917   -5.9292    0.0000 C   0  0  0  0  0  0  0  0  0  0  0  0
    4.1667   -8.1917    0.0000 C   0  0  0  0  0  0  0  0  0  0  0  0
    9.9292   -6.3292    0.0000 O   0  0  0  0  0  0  0  0  0  0  0  0
    8.7375   -4.8000    0.0000 C   0  0  0  0  0  0  0  0  0  0  0  0
    4.1667   -7.4375    0.0000 C   0  0  0  0  0  0  0  0  0  0  0  0
    9.3917   -5.1750    0.0000 C   0  0  0  0  0  0  0  0  0  0  0  0
    7.4292   -7.7167    0.0000 C   0  0  0  0  0  0  0  0  0  0  0  0
    9.2000   -7.4042    0.0000 O   0  0  0  0  0  0  0  0  0  0  0  0
    6.7792   -6.7500    0.0000 C   0  0  0  0  0  0  0  0  0  0  0  0
    5.4667   -6.8125    0.0000 C   0  0  0  0  0  0  0  0  0  0  0  0
    4.3542   -8.8750    0.0000 C   0  0  0  0  0  0  0  0  0  0  0  0
    5.3250   -8.8417    0.0000 C   0  0  0  0  0  0  0  0  0  0  0  0
    3.5167   -8.5667    0.0000 O   0  0  0  0  0  0  0  0  0  0  0  0
    7.4292   -4.8000    0.0000 C   0  0  0  0  0  0  0  0  0  0  0  0
    8.7375   -4.0500    0.0000 C   0  0  0  0  0  0  0  0  0  0  0  0
  2  1  1  0
  3  2  1  0
  4  1  1  0
  5  7  1  0
  6  4  1  0
  7 15  1  0
  8  5  1  0
  9  1  2  0
 10  8  1  0
  6 11  1  1
 12  4  1  0
 13  2  1  0
 14  3  1  0
 15  9  1  0
 16  6  1  0
 17  5  1  0
 18 14  1  0
 19  6  1  0
 20 23  1  0
 21 11  2  0
 22 12  1  0
 23 17  1  0
 24 22  1  0
  2 25  1  6
 26 11  1  0
  3 27  1  1
  5 28  1  1
 29 10  1  0
 30 10  1  0
 20 31  1  1
 12 32  1  1
 22 33  1  6
  7  3  1  0
 16 13  1  0
 24 19  1  0
 18  8  1  0
 20 10  1  0
M  END
>  <ID>  (2528) 


>  <MOLENAME>  (2528) 
URSOLIC ACID

>  <therap>  (2528) 
diuretic, antineoplastic, antiulcer 

>  <ref>  (2528) 
Phytochemistry 10:3279 (1971); Cancer Lett 33:279 (1986)

>  <cas#>  (2528) 
77-52-1

>  <source>  (2528) 
Rhododendron spp, Epigaea asiatica, surface wax of fruits

>  <status>  (2528) 
experimental

>  <tradename>  (2528) 
nan

>  <SMILES>  (2528) 
C[C@@H]1C2C3=CCC4[C@@]5(C)CC[C@H](O)C(C)(C)C5CC[C@@]4(C)[C@]3(C)CC[C@@]2(C(=O)O)CC[C@H]1C

>  <standardized_failed>  (2528) 
False

$$$$

     RDKit          2D

 15 14  0  0  0  0  0  0  0  0999 V2000
    8.3667   -1.5875    0.0000 S   0  0  0  0  0  0  0  0  0  0  0  0
    8.3667   -2.2417    0.0000 O   0  0  0  0  0  0  0  0  0  0  0  0
    8.3625   -0.9250    0.0000 O   0  0  0  0  0  0  0  0  0  0  0  0
    9.0875   -1.5917    0.0000 O   0  0  0  0  0  0  0  0  0  0  0  0
    7.5958   -1.5542    0.0000 O   0  0  0  0  0  0  0  0  0  0  0  0
    5.3292   -1.6417    0.0000 C   0  0  0  0  0  0  0  0  0  0  0  0
    6.5625   -2.3542    0.0000 N   0  0  0  0  0  0  0  0  0  0  0  0
    4.5125   -1.6417    0.0000 C   0  0  0  0  0  0  0  0  0  0  0  0
    5.7417   -2.3542    0.0000 C   0  0  0  0  0  0  0  0  0  0  0  0
    4.1000   -0.9292    0.0000 C   0  0  0  0  0  0  0  0  0  0  0  0
    4.1000   -2.3542    0.0000 C   0  0  0  0  0  0  0  0  0  0  0  0
    5.3292   -3.0667    0.0000 C   0  0  0  0  0  0  0  0  0  0  0  0
    3.2750   -2.3542    0.0000 C   0  0  0  0  0  0  0  0  0  0  0  0
    3.2750   -0.9292    0.0000 C   0  0  0  0  0  0  0  0  0  0  0  0
    2.8625   -1.6417    0.0000 C   0  0  0  0  0  0  0  0  0  0  0  0
  2  1  2  0
  3  1  2  0
  4  1  1  0
  5  1  1  0
  7  9  1  0
  8  6  1  0
  9  6  1  0
 10  8  2  0
 11  8  1  0
  9 12  1  1
 13 11  2  0
 14 10  1  0
 15 13  1  0
 14 15  2  0
M  END
>  <ID>  (2529) 


>  <MOLENAME>  (2529) 
DEXTROAMPHETAMINE SULFATE

>  <therap>  (2529) 
CNS stimulant

>  <ref>  (2529) 
J Med Chem 18:71 (1975); Neurosci Biobehav Rev  16:481 (1992)

>  <cas#>  (2529) 
51-63-8

>  <source>  (2529) 
synthetic

>  <status>  (2529) 
USP

>  <tradename>  (2529) 
DEXEDRINE

>  <SMILES>  (2529) 
C[C@H](N)Cc1ccccc1

>  <standardized_failed>  (2529) 
False

$$$$

     RDKit          2D

 21 23  0  0  0  0  0  0  0  0999 V2000
    7.7875   -6.3417    0.0000 N   0  0  0  0  0  0  0  0  0  0  0  0
    7.0042   -4.6542    0.0000 N   0  0  0  0  0  0  0  0  0  0  0  0
    6.4917   -5.9875    0.0000 C   0  0  0  0  0  0  0  0  0  0  0  0
    6.9875   -6.4750    0.0000 C   0  0  0  0  0  0  0  0  0  0  0  0
    7.8042   -4.8042    0.0000 C   0  0  0  0  0  0  0  0  0  0  0  0
    6.4875   -5.1542    0.0000 C   0  0  0  0  0  0  0  0  0  0  0  0
    8.1667   -5.5792    0.0000 C   0  0  0  0  0  0  0  0  0  0  0  0
    5.7667   -4.7417    0.0000 C   0  0  0  0  0  0  0  0  0  0  0  0
    5.7667   -6.4000    0.0000 C   0  0  0  0  0  0  0  0  0  0  0  0
    8.3042   -4.1542    0.0000 O   0  0  0  0  0  0  0  0  0  0  0  0
    6.7375   -7.2625    0.0000 C   0  0  0  0  0  0  0  0  0  0  0  0
    8.9917   -5.6000    0.0000 O   0  0  0  0  0  0  0  0  0  0  0  0
    5.0542   -5.9875    0.0000 C   0  0  0  0  0  0  0  0  0  0  0  0
    6.7667   -3.8667    0.0000 C   0  0  0  0  0  0  0  0  0  0  0  0
    5.0542   -5.1625    0.0000 C   0  0  0  0  0  0  0  0  0  0  0  0
    4.3417   -6.4000    0.0000 Cl  0  0  0  0  0  0  0  0  0  0  0  0
    5.9292   -7.4375    0.0000 C   0  0  0  0  0  0  0  0  0  0  0  0
    7.2917   -7.8667    0.0000 C   0  0  0  0  0  0  0  0  0  0  0  0
    7.0500   -8.6500    0.0000 C   0  0  0  0  0  0  0  0  0  0  0  0
    5.6792   -8.2250    0.0000 C   0  0  0  0  0  0  0  0  0  0  0  0
    6.2417   -8.8292    0.0000 C   0  0  0  0  0  0  0  0  0  0  0  0
  2  5  1  0
  3  4  1  0
  4  1  2  0
  5  7  1  0
  6  3  2  0
  7  1  1  0
  8  6  1  0
  9  3  1  0
 10  5  2  0
 11  4  1  0
 12  7  1  0
 13  9  2  0
 14  2  1  0
 15 13  1  0
 16 13  1  0
 17 11  2  0
 18 11  1  0
 19 18  2  0
 20 17  1  0
 21 19  1  0
  6  2  1  0
 21 20  2  0
 15  8  2  0
M  END
>  <ID>  (2530) 


>  <MOLENAME>  (2530) 
TEMAZEPAM

>  <therap>  (2530) 
sedative, minor tranquilizer

>  <ref>  (2530) 
nan

>  <cas#>  (2530) 
846-50-4

>  <source>  (2530) 
synthetic; WY-3917

>  <status>  (2530) 
USP, INN, BAN

>  <tradename>  (2530) 
nan

>  <SMILES>  (2530) 
CN1C(=O)C(O)N=C(c2ccccc2)c2c1ccc(Cl)c2

>  <standardized_failed>  (2530) 
False

$$$$

     RDKit          2D

 22 24  0  0  0  0  0  0  0  0999 V2000
    4.1292   -2.3250    0.0000 C   0  0  0  0  0  0  0  0  0  0  0  0
    4.1292   -3.2167    0.0000 C   0  0  0  0  0  0  0  0  0  0  0  0
    3.4167   -3.6417    0.0000 N   0  0  0  0  0  0  0  0  0  0  0  0
    2.6792   -2.3625    0.0000 N   0  0  0  0  0  0  0  0  0  0  0  0
    2.6875   -3.2292    0.0000 C   0  0  0  0  0  0  0  0  0  0  0  0
    3.4375   -1.9250    0.0000 C   0  0  0  0  0  0  0  0  0  0  0  0
    4.8292   -2.0750    0.0000 N   0  0  0  0  0  0  0  0  0  0  0  0
    4.8375   -3.4625    0.0000 N   0  0  0  0  0  0  0  0  0  0  0  0
    5.3292   -2.7500    0.0000 C   0  0  0  0  0  0  0  0  0  0  0  0
    2.0000   -3.6292    0.0000 O   0  0  0  0  0  0  0  0  0  0  0  0
    3.4375   -1.1292    0.0000 O   0  0  0  0  0  0  0  0  0  0  0  0
    6.2000   -2.7292    0.0000 C   0  0  0  0  0  0  0  0  0  0  0  0
    3.4292   -4.4667    0.0000 C   0  0  0  0  0  0  0  0  0  0  0  0
    1.9250   -1.9292    0.0000 C   0  0  0  0  0  0  0  0  0  0  0  0
    6.7167   -3.4292    0.0000 C   0  0  0  0  0  0  0  0  0  0  0  0
    6.6917   -2.0250    0.0000 C   0  0  0  0  0  0  0  0  0  0  0  0
    2.7167   -4.8917    0.0000 C   0  0  0  0  0  0  0  0  0  0  0  0
    1.9167   -1.0542    0.0000 C   0  0  0  0  0  0  0  0  0  0  0  0
    2.7250   -5.7167    0.0000 C   0  0  0  0  0  0  0  0  0  0  0  0
    1.1625   -0.6250    0.0000 C   0  0  0  0  0  0  0  0  0  0  0  0
    7.5250   -2.2792    0.0000 C   0  0  0  0  0  0  0  0  0  0  0  0
    7.5417   -3.1417    0.0000 C   0  0  0  0  0  0  0  0  0  0  0  0
  2  1  2  0
  3  2  1  0
  4  6  1  0
  5  4  1  0
  6  1  1  0
  7  1  1  0
  8  2  1  0
  9  7  2  0
 10  5  2  0
 11  6  2  0
 12  9  1  0
 13  3  1  0
 14  4  1  0
 15 12  1  0
 16 12  1  0
 17 13  1  0
 18 14  1  0
 19 17  1  0
 20 18  1  0
 21 16  1  0
 22 15  1  0
  9  8  1  0
  5  3  1  0
 21 22  1  0
M  END
>  <ID>  (2531) 


>  <MOLENAME>  (2531) 
1.3-DIPROPYL-8-CYCLOPENTYLXANTHINE

>  <therap>  (2531) 
A1 adenosine antagonist

>  <ref>  (2531) 
J Pharmacol Exp Ther 263 657 (1992); Naunyn Schmiedebergs Arch Pharmacol 362 382 (2000); J Cereb Blood Flow Metab 28 1835 (2008)

>  <cas#>  (2531) 
nan

>  <source>  (2531) 
synthetic; DPCPX

>  <status>  (2531) 
experimental

>  <tradename>  (2531) 
nan

>  <SMILES>  (2531) 
CCCn1c(=O)c2c([nH]c(C3CCCC3)n2)n(CCC)c1=O

>  <standardized_failed>  (2531) 
False

$$$$

     RDKit          2D

 24 25  0  0  0  0  0  0  0  0999 V2000
    6.3792   -3.5167    0.0000 C   0  0  0  0  0  0  0  0  0  0  0  0
    5.7292   -3.1375    0.0000 C   0  0  0  0  0  0  0  0  0  0  0  0
    6.3792   -4.2750    0.0000 C   0  0  0  0  0  0  0  0  0  0  0  0
    5.7292   -4.6500    0.0000 N   0  0  0  0  0  0  0  0  0  0  0  0
    5.0792   -3.5167    0.0000 C   0  0  0  0  0  0  0  0  0  0  0  0
    5.0792   -4.2750    0.0000 C   0  0  0  0  0  0  0  0  0  0  0  0
    9.9500   -3.5917    0.0000 C   0  0  0  0  0  0  0  0  0  0  0  0
    9.9500   -1.9417    0.0000 C   0  0  0  0  0  0  0  0  0  0  0  0
   10.6625   -2.3542    0.0000 C   0  0  0  0  0  0  0  0  0  0  0  0
   10.6625   -3.1792    0.0000 C   0  0  0  0  0  0  0  0  0  0  0  0
    7.0417   -3.1375    0.0000 C   0  0  0  0  0  0  0  0  0  0  0  0
    5.7292   -2.3875    0.0000 N   0  0  0  0  0  0  0  0  0  0  0  0
    9.9500   -1.1167    0.0000 O   0  0  0  0  0  0  0  0  0  0  0  0
    9.9500   -4.4167    0.0000 O   0  0  0  0  0  0  0  0  0  0  0  0
    9.2292   -2.3542    0.0000 O   0  0  0  0  0  0  0  0  0  0  0  0
    9.2292   -3.1792    0.0000 O   0  0  0  0  0  0  0  0  0  0  0  0
    7.0417   -4.6500    0.0000 C   0  0  0  0  0  0  0  0  0  0  0  0
    7.0417   -2.3875    0.0000 O   0  0  0  0  0  0  0  0  0  0  0  0
    4.4167   -3.1375    0.0000 C   0  0  0  0  0  0  0  0  0  0  0  0
    4.4167   -4.6500    0.0000 C   0  0  0  0  0  0  0  0  0  0  0  0
    7.6917   -4.2750    0.0000 C   0  0  0  0  0  0  0  0  0  0  0  0
    7.6917   -3.5167    0.0000 C   0  0  0  0  0  0  0  0  0  0  0  0
    3.7792   -3.5167    0.0000 C   0  0  0  0  0  0  0  0  0  0  0  0
    3.7792   -4.2750    0.0000 C   0  0  0  0  0  0  0  0  0  0  0  0
  2  1  2  0
  3  1  1  0
  4  3  2  0
  5  2  1  0
  6  4  1  0
  8  9  1  0
  9 10  2  0
 10  7  1  0
 11  1  1  0
 12  2  1  0
 13  8  2  0
 14  7  2  0
 15  8  1  0
 16  7  1  0
 17  3  1  0
 18 11  1  0
 19  5  2  0
 20  6  2  0
 21 22  1  0
 22 11  1  0
 23 19  1  0
 24 20  1  0
 17 21  1  0
  6  5  1  0
 23 24  2  0
M  END
>  <ID>  (2532) 


>  <MOLENAME>  (2532) 
HYDROXYTACRINE MALEATE

>  <therap>  (2532) 
cholinesterase inhibitor, antiparkinsonian

>  <ref>  (2532) 
J Med Chem 31:1278 (1988)

>  <cas#>  (2532) 
nan

>  <source>  (2532) 
synthetic

>  <status>  (2532) 
experimental

>  <tradename>  (2532) 
nan

>  <SMILES>  (2532) 
Nc1c2c(nc3ccccc13)CCCC2O

>  <standardized_failed>  (2532) 
False

$$$$

     RDKit          2D

 11 11  0  0  0  0  0  0  0  0999 V2000
    3.9417   -0.9292    0.0000 C   0  0  0  0  0  0  0  0  0  0  0  0
    3.2292   -1.3417    0.0000 C   0  0  0  0  0  0  0  0  0  0  0  0
    4.6542   -1.3375    0.0000 N   0  0  0  0  0  0  0  0  0  0  0  0
    3.9417   -0.1042    0.0000 O   0  0  0  0  0  0  0  0  0  0  0  0
    2.5167   -2.5792    0.0000 N   0  0  0  0  0  0  0  0  0  0  0  0
    5.3667   -0.9250    0.0000 C   0  0  0  0  0  0  0  0  0  0  0  0
    3.2292   -2.1667    0.0000 C   0  0  0  0  0  0  0  0  0  0  0  0
    6.0792   -1.3292    0.0000 O   0  0  0  0  0  0  0  0  0  0  0  0
    2.5167   -0.9292    0.0000 C   0  0  0  0  0  0  0  0  0  0  0  0
    1.8042   -2.1667    0.0000 C   0  0  0  0  0  0  0  0  0  0  0  0
    1.8042   -1.3417    0.0000 C   0  0  0  0  0  0  0  0  0  0  0  0
  2  1  1  0
  3  1  1  0
  4  1  2  0
  5  7  1  0
  6  3  1  0
  7  2  2  0
  8  6  1  0
  9  2  1  0
 10 11  1  0
 11  9  2  0
 10  5  2  0
M  END
>  <ID>  (2533) 


>  <MOLENAME>  (2533) 
N-HYDROXYMETHYLNICOTINAMIDE

>  <therap>  (2533) 
cholagogue, antiinflammatory, antibacterial

>  <ref>  (2533) 
Pharmacological reports 58:246 (2006)

>  <cas#>  (2533) 
3569-99-1

>  <source>  (2533) 
synthetic

>  <status>  (2533) 
experimental

>  <tradename>  (2533) 
nan

>  <SMILES>  (2533) 
O=C(NCO)c1cnccc1

>  <standardized_failed>  (2533) 
False

$$$$

     RDKit          2D

 18 20  0  0  0  0  0  0  0  0999 V2000
    5.9167   -2.6375    0.0000 C   0  0  0  0  0  0  0  0  0  0  0  0
    5.9167   -3.4625    0.0000 C   0  0  0  0  0  0  0  0  0  0  0  0
    5.2000   -3.8792    0.0000 N   0  0  0  0  0  0  0  0  0  0  0  0
    4.4875   -2.6375    0.0000 N   0  0  0  0  0  0  0  0  0  0  0  0
    4.4875   -3.4667    0.0000 C   0  0  0  0  0  0  0  0  0  0  0  0
    5.2000   -2.2250    0.0000 C   0  0  0  0  0  0  0  0  0  0  0  0
    6.7000   -2.3750    0.0000 N   0  0  0  0  0  0  0  0  0  0  0  0
    6.7042   -3.7125    0.0000 N   0  0  0  0  0  0  0  0  0  0  0  0
    7.1917   -3.0417    0.0000 C   0  0  0  0  0  0  0  0  0  0  0  0
    3.7667   -3.8792    0.0000 O   0  0  0  0  0  0  0  0  0  0  0  0
    5.1917   -1.4000    0.0000 O   0  0  0  0  0  0  0  0  0  0  0  0
    8.0167   -3.0375    0.0000 C   0  0  0  0  0  0  0  0  0  0  0  0
    5.2042   -4.7042    0.0000 C   0  0  0  0  0  0  0  0  0  0  0  0
    3.7750   -2.2292    0.0000 C   0  0  0  0  0  0  0  0  0  0  0  0
    8.5042   -3.7000    0.0000 C   0  0  0  0  0  0  0  0  0  0  0  0
    8.4917   -2.3667    0.0000 C   0  0  0  0  0  0  0  0  0  0  0  0
    9.2792   -2.6167    0.0000 C   0  0  0  0  0  0  0  0  0  0  0  0
    9.2875   -3.4417    0.0000 C   0  0  0  0  0  0  0  0  0  0  0  0
  2  1  2  0
  3  2  1  0
  4  6  1  0
  5  4  1  0
  6  1  1  0
  7  1  1  0
  8  2  1  0
  9  7  2  0
 10  5  2  0
 11  6  2  0
 12  9  1  0
 13  3  1  0
 14  4  1  0
 15 12  1  0
 16 12  1  0
 17 16  1  0
 18 15  1  0
  8  9  1  0
  5  3  1  0
 18 17  1  0
M  END
>  <ID>  (2534) 


>  <MOLENAME>  (2534) 
8-CYCLOPENTYLTHEOPHYLLINE

>  <therap>  (2534) 
A1 adenosine agonist

>  <ref>  (2534) 
Mol Pharmacol 29: 331 (1986)

>  <cas#>  (2534) 
nan

>  <source>  (2534) 
synthetic

>  <status>  (2534) 
experimental

>  <tradename>  (2534) 
nan

>  <SMILES>  (2534) 
Cn1c(=O)c2c([nH]c(C3CCCC3)n2)n(C)c1=O

>  <standardized_failed>  (2534) 
False

$$$$

     RDKit          2D

 15 15  0  0  0  0  0  0  0  0999 V2000
    1.4167   -4.1542    0.0000 N   0  0  0  0  0  0  0  0  0  0  0  0
    1.3167   -2.8292    0.0000 C   0  0  0  0  0  0  0  0  0  0  0  0
    2.1792   -3.8292    0.0000 C   0  0  0  0  0  0  0  0  0  0  0  0
    2.1167   -3.0167    0.0000 C   0  0  0  0  0  0  0  0  0  0  0  0
    0.9000   -3.5500    0.0000 C   0  0  0  0  0  0  0  0  0  0  0  0
    0.9125   -2.1000    0.0000 C   0  0  0  0  0  0  0  0  0  0  0  0
    0.0625   -3.5375    0.0000 C   0  0  0  0  0  0  0  0  0  0  0  0
    0.0792   -2.0917    0.0000 C   0  0  0  0  0  0  0  0  0  0  0  0
   -0.3500   -2.8042    0.0000 C   0  0  0  0  0  0  0  0  0  0  0  0
    5.2917   -3.1167    0.0000 Cl  0  0  0  0  0  0  0  0  0  0  0  0
    3.4500   -3.7125    0.0000 N   0  0  0  0  0  0  0  0  0  0  0  0
   -0.3208   -1.3667    0.0000 O   0  0  0  0  0  0  0  0  0  0  0  0
    2.7375   -2.4792    0.0000 C   0  0  0  0  0  0  0  0  0  0  0  0
    3.4500   -2.8917    0.0000 C   0  0  0  0  0  0  0  0  0  0  0  0
    0.1000   -0.6625    0.0000 C   0  0  0  0  0  0  0  0  0  0  0  0
  2  5  2  0
  3  1  1  0
  4  3  2  0
  5  1  1  0
  6  2  1  0
  7  5  1  0
  8  9  1  0
  9  7  2  0
 11 14  1  0
 12  8  1  0
 13  4  1  0
 14 13  1  0
 15 12  1  0
  2  4  1  0
  6  8  2  0
M  END
>  <ID>  (2535) 


>  <MOLENAME>  (2535) 
MEXAMINE

>  <therap>  (2535) 
5HT agonist

>  <ref>  (2535) 
J Med Chem  30: 1 (1987)

>  <cas#>  (2535) 
608-07-1

>  <source>  (2535) 
synthetic

>  <status>  (2535) 
experimental

>  <tradename>  (2535) 
nan

>  <SMILES>  (2535) 
COc1cc2c(cc1)[nH]cc2CCN

>  <standardized_failed>  (2535) 
False

$$$$

     RDKit          2D

  9  9  0  0  0  0  0  0  0  0999 V2000
    1.9125   -0.8042    0.0000 C   0  0  0  0  0  0  0  0  0  0  0  0
    1.2625   -1.1792    0.0000 C   0  0  0  0  0  0  0  0  0  0  0  0
    0.6042   -2.3125    0.0000 N   0  0  0  0  0  0  0  0  0  0  0  0
    1.9125   -0.0542    0.0000 O   0  0  0  0  0  0  0  0  0  0  0  0
    2.5625   -1.1792    0.0000 O   0  0  0  0  0  0  0  0  0  0  0  0
    1.2625   -1.9375    0.0000 C   0  0  0  0  0  0  0  0  0  0  0  0
    0.6042   -0.8042    0.0000 C   0  0  0  0  0  0  0  0  0  0  0  0
   -0.0375   -1.9375    0.0000 C   0  0  0  0  0  0  0  0  0  0  0  0
   -0.0375   -1.1792    0.0000 C   0  0  0  0  0  0  0  0  0  0  0  0
  2  1  1  0
  3  6  1  0
  4  1  2  0
  5  1  1  0
  6  2  1  0
  7  2  1  0
  8  9  1  0
  9  7  1  0
  3  8  1  0
M  END
>  <ID>  (2536) 


>  <MOLENAME>  (2536) 
NIPECOTIC ACID

>  <therap>  (2536) 
GABA uptake inhibitor

>  <ref>  (2536) 
J Neurochem 25: 797 (1975); Life Sci 19: 701 (1976)

>  <cas#>  (2536) 
498-95-3

>  <source>  (2536) 
synthetic

>  <status>  (2536) 
experimental

>  <tradename>  (2536) 
nan

>  <SMILES>  (2536) 
O=C(O)C1CCCNC1

>  <standardized_failed>  (2536) 
False

$$$$

     RDKit          2D

 16 17  0  0  0  0  0  0  0  0999 V2000
    0.9167   -1.9292    0.0000 C   0  0  0  0  0  0  0  0  0  0  0  0
    0.9167   -1.1792    0.0000 C   0  0  0  0  0  0  0  0  0  0  0  0
    0.2667   -2.3042    0.0000 N   0  0  0  0  0  0  0  0  0  0  0  0
   -0.3833   -1.1792    0.0000 N   0  0  0  0  0  0  0  0  0  0  0  0
   -0.3833   -1.9292    0.0000 C   0  0  0  0  0  0  0  0  0  0  0  0
    0.2667   -0.8042    0.0000 C   0  0  0  0  0  0  0  0  0  0  0  0
    1.6292   -2.1625    0.0000 N   0  0  0  0  0  0  0  0  0  0  0  0
    1.6292   -0.9542    0.0000 N   0  0  0  0  0  0  0  0  0  0  0  0
    2.0667   -1.5667    0.0000 C   0  0  0  0  0  0  0  0  0  0  0  0
   -1.0333   -2.3167    0.0000 O   0  0  0  0  0  0  0  0  0  0  0  0
    0.2667   -0.0542    0.0000 O   0  0  0  0  0  0  0  0  0  0  0  0
    0.2667   -3.0625    0.0000 C   0  0  0  0  0  0  0  0  0  0  0  0
   -1.0333   -0.8042    0.0000 C   0  0  0  0  0  0  0  0  0  0  0  0
    1.8625   -0.2292    0.0000 C   0  0  0  0  0  0  0  0  0  0  0  0
    2.8292    0.6458    0.0000 O   0  0  0  0  0  0  0  0  0  0  0  0
    2.6000   -0.0750    0.0000 C   0  0  0  0  0  0  0  0  0  0  0  0
  2  1  2  0
  3  1  1  0
  4  5  1  0
  5  3  1  0
  6  2  1  0
  7  1  1  0
  8  2  1  0
  9  7  2  0
 10  5  2  0
 11  6  2  0
 12  3  1  0
 13  4  1  0
 14  8  1  0
 15 16  1  0
 16 14  1  0
  9  8  1  0
  6  4  1  0
M  END
>  <ID>  (2537) 


>  <MOLENAME>  (2537) 
7-HYDROXYETHYLTHEOPHYLLINE

>  <therap>  (2537) 
PDE inhibitor, bronchodilator, vasodilator, antineoplastic

>  <ref>  (2537) 
Proc Nati Acad Sci 78:3260 (1981); Melanoma Res 22:133 (2012)

>  <cas#>  (2537) 
nan

>  <source>  (2537) 
synthetic

>  <status>  (2537) 
experimental

>  <tradename>  (2537) 
nan

>  <SMILES>  (2537) 
Cn1c(=O)c2c(ncn2CCO)n(C)c1=O

>  <standardized_failed>  (2537) 
False

$$$$

     RDKit          2D

 11 11  0  0  0  0  0  0  0  0999 V2000
    5.0000   -0.6125    0.0000 C   0  0  0  0  0  0  0  0  0  0  0  0
    4.2875   -1.0250    0.0000 C   0  0  0  0  0  0  0  0  0  0  0  0
    3.5750   -0.6167    0.0000 C   0  0  0  0  0  0  0  0  0  0  0  0
    4.9917    0.2125    0.0000 O   0  0  0  0  0  0  0  0  0  0  0  0
    2.8625   -1.0292    0.0000 C   0  0  0  0  0  0  0  0  0  0  0  0
    5.7125   -1.0167    0.0000 O   0  0  0  0  0  0  0  0  0  0  0  0
    2.1417   -0.6167    0.0000 C   0  0  0  0  0  0  0  0  0  0  0  0
    2.8625   -1.8542    0.0000 C   0  0  0  0  0  0  0  0  0  0  0  0
    1.4292   -1.0292    0.0000 C   0  0  0  0  0  0  0  0  0  0  0  0
    2.1417   -2.2667    0.0000 C   0  0  0  0  0  0  0  0  0  0  0  0
    1.4292   -1.8542    0.0000 C   0  0  0  0  0  0  0  0  0  0  0  0
  2  1  1  0
  3  2  2  0
  4  1  2  0
  5  3  1  0
  6  1  1  0
  7  5  2  0
  8  5  1  0
  9  7  1  0
 10  8  2  0
 11 10  1  0
  9 11  2  0
M  END
>  <ID>  (2538) 


>  <MOLENAME>  (2538) 
CINNAMIC ACID

>  <therap>  (2538) 
fragrance & flavoring agent, antidiabetic

>  <ref>  (2538) 
Int J Mol Sci 13:1778 (2012)

>  <cas#>  (2538) 
621-82-9

>  <source>  (2538) 
widespread in plants

>  <status>  (2538) 
experimental

>  <tradename>  (2538) 
nan

>  <SMILES>  (2538) 
O=C(O)/C=C/c1ccccc1

>  <standardized_failed>  (2538) 
False

$$$$

     RDKit          2D

 19 21  0  0  0  0  0  0  0  0999 V2000
    0.7500   -6.4952    0.0000 O   0  0  0  0  0  0  0  0  0  0  0  0
   -0.7500   -6.4952    0.0000 C   0  0  0  0  0  0  0  0  0  0  0  0
   -1.5000   -7.7942    0.0000 C   0  0  0  0  0  0  0  0  0  0  0  0
   -3.0000   -7.7942    0.0000 C   0  0  0  0  0  0  0  0  0  0  0  0
   -3.7500   -6.4952    0.0000 C   0  0  0  0  0  0  0  0  0  0  0  0
   -3.0000   -5.1962    0.0000 C   0  0  0  0  0  0  0  0  0  0  0  0
   -1.5000   -5.1962    0.0000 C   0  0  0  0  0  0  0  0  0  0  0  0
   -0.7500   -3.8971    0.0000 C   0  0  0  0  0  0  0  0  0  0  0  0
   -1.5000   -2.5981    0.0000 O   0  0  0  0  0  0  0  0  0  0  0  0
    0.7500   -3.8971    0.0000 C   0  0  0  0  0  0  0  0  0  0  0  0
    1.5000   -2.5981    0.0000 C   0  0  0  0  0  0  0  0  0  0  0  0
    3.0000   -2.5981    0.0000 O   0  0  0  0  0  0  0  0  0  0  0  0
    0.7500   -1.2990    0.0000 C   0  0  0  0  0  0  0  0  0  0  0  0
   -0.7500   -1.2990    0.0000 C   0  0  0  0  0  0  0  0  0  0  0  0
    1.5000    0.0000    0.0000 C   0  0  0  0  0  0  0  0  0  0  0  0
    0.7500    1.2990    0.0000 C   0  0  0  0  0  0  0  0  0  0  0  0
   -0.7500    1.2990    0.0000 C   0  0  0  0  0  0  0  0  0  0  0  0
   -1.5000    0.0000    0.0000 C   0  0  0  0  0  0  0  0  0  0  0  0
   -1.5000    2.5981    0.0000 O   0  0  0  0  0  0  0  0  0  0  0  0
  1  2  1  0
  2  3  2  0
  3  4  1  0
  4  5  2  0
  5  6  1  0
  6  7  2  0
  7  8  1  0
  8  9  1  0
  8 10  2  0
 10 11  1  0
 11 12  2  0
 11 13  1  0
 13 14  2  0
 13 15  1  0
 15 16  2  0
 16 17  1  0
 17 18  2  0
 17 19  1  0
  7  2  1  0
 14  9  1  0
 18 14  1  0
M  END
>  <ID>  (2539) 
nan

>  <MOLENAME>  (2539) 
7.2'-DIHYDROXYFLAVONE

>  <therap>  (2539) 
nan

>  <ref>  (2539) 
nan

>  <cas#>  (2539) 
nan

>  <source>  (2539) 
nan

>  <status>  (2539) 
nan

>  <tradename>  (2539) 
nan

>  <SMILES>  (2539) 
O=c1cc(-c2ccccc2O)oc2c1ccc(O)c2

>  <standardized_failed>  (2539) 
False

$$$$

     RDKit          2D

 21 23  0  0  0  0  0  0  0  0999 V2000
    1.5000   -7.7942    0.0000 C   0  0  0  0  0  0  0  0  0  0  0  0
    0.7500   -6.4952    0.0000 O   0  0  0  0  0  0  0  0  0  0  0  0
   -0.7500   -6.4952    0.0000 C   0  0  0  0  0  0  0  0  0  0  0  0
   -1.5000   -7.7942    0.0000 C   0  0  0  0  0  0  0  0  0  0  0  0
   -3.0000   -7.7942    0.0000 C   0  0  0  0  0  0  0  0  0  0  0  0
   -3.7500   -6.4952    0.0000 C   0  0  0  0  0  0  0  0  0  0  0  0
   -3.0000   -5.1962    0.0000 C   0  0  0  0  0  0  0  0  0  0  0  0
   -1.5000   -5.1962    0.0000 C   0  0  0  0  0  0  0  0  0  0  0  0
   -0.7500   -3.8971    0.0000 C   0  0  0  0  0  0  0  0  0  0  0  0
   -1.5000   -2.5981    0.0000 O   0  0  0  0  0  0  0  0  0  0  0  0
    0.7500   -3.8971    0.0000 C   0  0  0  0  0  0  0  0  0  0  0  0
    1.5000   -2.5981    0.0000 C   0  0  0  0  0  0  0  0  0  0  0  0
    3.0000   -2.5981    0.0000 O   0  0  0  0  0  0  0  0  0  0  0  0
    0.7500   -1.2990    0.0000 C   0  0  0  0  0  0  0  0  0  0  0  0
   -0.7500   -1.2990    0.0000 C   0  0  0  0  0  0  0  0  0  0  0  0
    1.5000    0.0000    0.0000 C   0  0  0  0  0  0  0  0  0  0  0  0
    3.0000    0.0000    0.0000 O   0  0  0  0  0  0  0  0  0  0  0  0
    3.7500    1.2990    0.0000 C   0  0  0  0  0  0  0  0  0  0  0  0
    0.7500    1.2990    0.0000 C   0  0  0  0  0  0  0  0  0  0  0  0
   -0.7500    1.2990    0.0000 C   0  0  0  0  0  0  0  0  0  0  0  0
   -1.5000    0.0000    0.0000 C   0  0  0  0  0  0  0  0  0  0  0  0
  1  2  1  0
  2  3  1  0
  3  4  2  0
  4  5  1  0
  5  6  2  0
  6  7  1  0
  7  8  2  0
  8  9  1  0
  9 10  1  0
  9 11  2  0
 11 12  1  0
 12 13  2  0
 12 14  1  0
 14 15  2  0
 14 16  1  0
 16 17  1  0
 17 18  1  0
 16 19  2  0
 19 20  1  0
 20 21  2  0
  8  3  1  0
 15 10  1  0
 21 15  1  0
M  END
>  <ID>  (2540) 
nan

>  <MOLENAME>  (2540) 
5.2'-DIMETHOXYFLAVONE

>  <therap>  (2540) 
nan

>  <ref>  (2540) 
nan

>  <cas#>  (2540) 
nan

>  <source>  (2540) 
nan

>  <status>  (2540) 
nan

>  <tradename>  (2540) 
nan

>  <SMILES>  (2540) 
COc1ccccc1-c1cc(=O)c2c(cccc2OC)o1

>  <standardized_failed>  (2540) 
False

$$$$

     RDKit          2D

 21 23  0  0  0  0  0  0  0  0999 V2000
    1.5000   -7.7942    0.0000 C   0  0  0  0  0  0  0  0  0  0  0  0
    0.7500   -6.4952    0.0000 O   0  0  0  0  0  0  0  0  0  0  0  0
   -0.7500   -6.4952    0.0000 C   0  0  0  0  0  0  0  0  0  0  0  0
   -1.5000   -7.7942    0.0000 C   0  0  0  0  0  0  0  0  0  0  0  0
   -3.0000   -7.7942    0.0000 C   0  0  0  0  0  0  0  0  0  0  0  0
   -3.7500   -6.4952    0.0000 C   0  0  0  0  0  0  0  0  0  0  0  0
   -3.0000   -5.1962    0.0000 C   0  0  0  0  0  0  0  0  0  0  0  0
   -1.5000   -5.1962    0.0000 C   0  0  0  0  0  0  0  0  0  0  0  0
   -0.7500   -3.8971    0.0000 C   0  0  0  0  0  0  0  0  0  0  0  0
   -1.5000   -2.5981    0.0000 O   0  0  0  0  0  0  0  0  0  0  0  0
    0.7500   -3.8971    0.0000 C   0  0  0  0  0  0  0  0  0  0  0  0
    1.5000   -2.5981    0.0000 C   0  0  0  0  0  0  0  0  0  0  0  0
    3.0000   -2.5981    0.0000 O   0  0  0  0  0  0  0  0  0  0  0  0
    0.7500   -1.2990    0.0000 C   0  0  0  0  0  0  0  0  0  0  0  0
   -0.7500   -1.2990    0.0000 C   0  0  0  0  0  0  0  0  0  0  0  0
    1.5000    0.0000    0.0000 C   0  0  0  0  0  0  0  0  0  0  0  0
    0.7500    1.2990    0.0000 C   0  0  0  0  0  0  0  0  0  0  0  0
   -0.7500    1.2990    0.0000 C   0  0  0  0  0  0  0  0  0  0  0  0
   -1.5000    0.0000    0.0000 C   0  0  0  0  0  0  0  0  0  0  0  0
    1.5000    2.5981    0.0000 O   0  0  0  0  0  0  0  0  0  0  0  0
    3.0000    2.5981    0.0000 C   0  0  0  0  0  0  0  0  0  0  0  0
  1  2  1  0
  2  3  1  0
  3  4  2  0
  4  5  1  0
  5  6  2  0
  6  7  1  0
  7  8  2  0
  8  9  1  0
  9 10  1  0
  9 11  2  0
 11 12  1  0
 12 13  2  0
 12 14  1  0
 14 15  2  0
 14 16  1  0
 16 17  2  0
 17 18  1  0
 18 19  2  0
 17 20  1  0
 20 21  1  0
  8  3  1  0
 15 10  1  0
 19 15  1  0
M  END
>  <ID>  (2541) 
nan

>  <MOLENAME>  (2541) 
6.2'-DIMETHOXYFLAVONE

>  <therap>  (2541) 
nan

>  <ref>  (2541) 
nan

>  <cas#>  (2541) 
nan

>  <source>  (2541) 
nan

>  <status>  (2541) 
nan

>  <tradename>  (2541) 
nan

>  <SMILES>  (2541) 
COc1cc2c(cc1)oc(-c1ccccc1OC)cc2=O

>  <standardized_failed>  (2541) 
False

$$$$

     RDKit          2D

 21 23  0  0  0  0  0  0  0  0999 V2000
    1.5000   -7.7942    0.0000 C   0  0  0  0  0  0  0  0  0  0  0  0
    0.7500   -6.4952    0.0000 O   0  0  0  0  0  0  0  0  0  0  0  0
   -0.7500   -6.4952    0.0000 C   0  0  0  0  0  0  0  0  0  0  0  0
   -1.5000   -7.7942    0.0000 C   0  0  0  0  0  0  0  0  0  0  0  0
   -3.0000   -7.7942    0.0000 C   0  0  0  0  0  0  0  0  0  0  0  0
   -3.7500   -6.4952    0.0000 C   0  0  0  0  0  0  0  0  0  0  0  0
   -3.0000   -5.1962    0.0000 C   0  0  0  0  0  0  0  0  0  0  0  0
   -1.5000   -5.1962    0.0000 C   0  0  0  0  0  0  0  0  0  0  0  0
   -0.7500   -3.8971    0.0000 C   0  0  0  0  0  0  0  0  0  0  0  0
   -1.5000   -2.5981    0.0000 O   0  0  0  0  0  0  0  0  0  0  0  0
    0.7500   -3.8971    0.0000 C   0  0  0  0  0  0  0  0  0  0  0  0
    1.5000   -2.5981    0.0000 C   0  0  0  0  0  0  0  0  0  0  0  0
    3.0000   -2.5981    0.0000 O   0  0  0  0  0  0  0  0  0  0  0  0
    0.7500   -1.2990    0.0000 C   0  0  0  0  0  0  0  0  0  0  0  0
   -0.7500   -1.2990    0.0000 C   0  0  0  0  0  0  0  0  0  0  0  0
    1.5000    0.0000    0.0000 C   0  0  0  0  0  0  0  0  0  0  0  0
    0.7500    1.2990    0.0000 C   0  0  0  0  0  0  0  0  0  0  0  0
   -0.7500    1.2990    0.0000 C   0  0  0  0  0  0  0  0  0  0  0  0
   -1.5000    0.0000    0.0000 C   0  0  0  0  0  0  0  0  0  0  0  0
   -1.5000    2.5981    0.0000 O   0  0  0  0  0  0  0  0  0  0  0  0
   -0.7500    3.8971    0.0000 C   0  0  0  0  0  0  0  0  0  0  0  0
  1  2  1  0
  2  3  1  0
  3  4  2  0
  4  5  1  0
  5  6  2  0
  6  7  1  0
  7  8  2  0
  8  9  1  0
  9 10  1  0
  9 11  2  0
 11 12  1  0
 12 13  2  0
 12 14  1  0
 14 15  2  0
 14 16  1  0
 16 17  2  0
 17 18  1  0
 18 19  2  0
 18 20  1  0
 20 21  1  0
  8  3  1  0
 15 10  1  0
 19 15  1  0
M  END
>  <ID>  (2542) 
nan

>  <MOLENAME>  (2542) 
7.2'-DIMETHOXYFLAVONE

>  <therap>  (2542) 
nan

>  <ref>  (2542) 
nan

>  <cas#>  (2542) 
nan

>  <source>  (2542) 
nan

>  <status>  (2542) 
nan

>  <tradename>  (2542) 
nan

>  <SMILES>  (2542) 
COc1cc2c(cc1)c(=O)cc(-c1ccccc1OC)o2

>  <standardized_failed>  (2542) 
False

$$$$

     RDKit          2D

 21 23  0  0  0  0  0  0  0  0999 V2000
    3.0000   -5.1962    0.0000 C   0  0  0  0  0  0  0  0  0  0  0  0
    3.7500   -6.4952    0.0000 C   0  0  0  0  0  0  0  0  0  0  0  0
    3.0000   -7.7942    0.0000 C   0  0  0  0  0  0  0  0  0  0  0  0
    3.7500   -9.0933    0.0000 O   0  0  0  0  0  0  0  0  0  0  0  0
    3.0000  -10.3923    0.0000 C   0  0  0  0  0  0  0  0  0  0  0  0
    1.5000   -7.7942    0.0000 C   0  0  0  0  0  0  0  0  0  0  0  0
    0.7500   -6.4952    0.0000 C   0  0  0  0  0  0  0  0  0  0  0  0
    1.5000   -5.1962    0.0000 C   0  0  0  0  0  0  0  0  0  0  0  0
    0.7500   -3.8971    0.0000 C   0  0  0  0  0  0  0  0  0  0  0  0
   -0.7500   -3.8971    0.0000 C   0  0  0  0  0  0  0  0  0  0  0  0
   -1.5000   -2.5981    0.0000 O   0  0  0  0  0  0  0  0  0  0  0  0
    1.5000   -2.5981    0.0000 C   0  0  0  0  0  0  0  0  0  0  0  0
    3.0000   -2.5981    0.0000 O   0  0  0  0  0  0  0  0  0  0  0  0
    0.7500   -1.2990    0.0000 C   0  0  0  0  0  0  0  0  0  0  0  0
   -0.7500   -1.2990    0.0000 C   0  0  0  0  0  0  0  0  0  0  0  0
    1.5000    0.0000    0.0000 C   0  0  0  0  0  0  0  0  0  0  0  0
    0.7500    1.2990    0.0000 C   0  0  0  0  0  0  0  0  0  0  0  0
   -0.7500    1.2990    0.0000 C   0  0  0  0  0  0  0  0  0  0  0  0
   -1.5000    0.0000    0.0000 C   0  0  0  0  0  0  0  0  0  0  0  0
   -1.5000    2.5981    0.0000 O   0  0  0  0  0  0  0  0  0  0  0  0
   -0.7500    3.8971    0.0000 C   0  0  0  0  0  0  0  0  0  0  0  0
  1  2  2  0
  2  3  1  0
  3  4  1  0
  4  5  1  0
  3  6  2  0
  6  7  1  0
  7  8  2  0
  8  9  1  0
  9 10  2  0
 10 11  1  0
  9 12  1  0
 12 13  2  0
 12 14  1  0
 14 15  2  0
 14 16  1  0
 16 17  2  0
 17 18  1  0
 18 19  2  0
 18 20  1  0
 20 21  1  0
  8  1  1  0
 15 11  1  0
 19 15  1  0
M  END
>  <ID>  (2543) 
nan

>  <MOLENAME>  (2543) 
7.4'-DIMETHOXYISOFLAVONE

>  <therap>  (2543) 
nan

>  <ref>  (2543) 
nan

>  <cas#>  (2543) 
nan

>  <source>  (2543) 
nan

>  <status>  (2543) 
nan

>  <tradename>  (2543) 
nan

>  <SMILES>  (2543) 
COc1ccc(-c2coc3c(ccc(OC)c3)c2=O)cc1

>  <standardized_failed>  (2543) 
False

$$$$
